   Input file: sprocati2019-case1.phr
  Output file: sprocati2019-case1.phr.out
Using PHREEQC: version 3.6.0, compiled December 2, 2019
Database file: database/phreeqc.dat

------------------
Reading data base.
------------------

	SOLUTION_MASTER_SPECIES
	SOLUTION_SPECIES
	PHASES
	EXCHANGE_MASTER_SPECIES
	EXCHANGE_SPECIES
	SURFACE_MASTER_SPECIES
	SURFACE_SPECIES
	RATES
	END
------------------------------------
Reading input data for simulation 1.
------------------------------------

	DATABASE database/phreeqc.dat
	SOLUTION_MASTER_SPECIES
		A_i 	A_i+ 	0.0		1.0		1.0
		B_i 	B_i-	0.0		1.0		1.0
		C_i		C_i+	0.0		1.0		1.0
		D_i 	D_i-	0.0		1.0		1.0
	SOLUTION_SPECIES
		A_i+ = A_i+
			log_k	0.0
		B_i- = B_i-
			log_k	0.0
		C_i+ = C_i+
			log_k	0.0
		D_i- = D_i-
			log_k	0.0
	SOLUTION 0 #cathode (-)
		pH 7 charge
		temp 25
		A_i 10
		B_i 10
		potential 0
	END
-------------------------------------------
Beginning of initial solution calculations.
-------------------------------------------

Initial solution 0.	

-----------------------------Solution composition------------------------------

	Elements           Molality       Moles

	A_i               1.000e-02   1.000e-02
	B_i               1.000e-02   1.000e-02

----------------------------Description of solution----------------------------

                                       pH  =   6.994      Charge balance
                                       pe  =   4.000    
      Specific Conductance (µS/cm,  25°C)  = 0
                          Density (g/cm³)  =   0.99706
                               Volume (L)  =   1.00297
                        Activity of water  =   1.000
                 Ionic strength (mol/kgw)  =   1.000e-02
                       Mass of water (kg)  =   1.000e+00
                 Total alkalinity (eq/kg)  =   4.894e-19
                         Temperature (°C)  =  25.00
                  Electrical balance (eq)  =  -4.894e-19
 Percent error, 100*(Cat-|An|)/(Cat+|An|)  =  -0.00
                               Iterations  =   3
                                  Total H  = 1.110124e+02
                                  Total O  = 5.550622e+01

----------------------------Distribution of species----------------------------

                                               Log       Log       Log    mole V
   Species          Molality    Activity  Molality  Activity     Gamma   cm³/mol

   OH-             1.109e-07   9.985e-08    -6.955    -7.001    -0.046     -4.03
   H+              1.109e-07   1.013e-07    -6.955    -6.994    -0.039      0.00
   H2O             5.551e+01   9.997e-01     1.744    -0.000     0.000     18.07
A_i           1.000e-02
   A_i+            1.000e-02   9.019e-03    -2.000    -2.045    -0.045     (0)  
B_i           1.000e-02
   B_i-            1.000e-02   9.019e-03    -2.000    -2.045    -0.045     (0)  
H(0)          1.450e-25
   H2              7.252e-26   7.269e-26   -25.140   -25.139     0.001     28.61
O(0)          0.000e+00
   O2              0.000e+00   0.000e+00   -42.104   -42.103     0.001     30.40

------------------------------Saturation indices-------------------------------

  Phase               SI** log IAP   log K(298 K,   1 atm)

  H2(g)           -22.04    -25.14   -3.10  H2
  H2O(g)           -1.50     -0.00    1.50  H2O
  O2(g)           -39.21    -42.10   -2.89  O2

**For a gas, SI = log10(fugacity). Fugacity = pressure * phi / 1 atm.
  For ideal gases, phi = 1.

------------------
End of simulation.
------------------

------------------------------------
Reading input data for simulation 2.
------------------------------------

	SOLUTION 1-100
		pH 7 charge
		temp 25
		C_i	10
		D_i 10
	END
-------------------------------------------
Beginning of initial solution calculations.
-------------------------------------------

Initial solution 1.	

-----------------------------Solution composition------------------------------

	Elements           Molality       Moles

	C_i               1.000e-02   1.000e-02
	D_i               1.000e-02   1.000e-02

----------------------------Description of solution----------------------------

                                       pH  =   6.994      Charge balance
                                       pe  =   4.000    
      Specific Conductance (µS/cm,  25°C)  = 0
                          Density (g/cm³)  =   0.99706
                               Volume (L)  =   1.00297
                        Activity of water  =   1.000
                 Ionic strength (mol/kgw)  =   1.000e-02
                       Mass of water (kg)  =   1.000e+00
                 Total alkalinity (eq/kg)  =   2.870e-19
                         Temperature (°C)  =  25.00
                  Electrical balance (eq)  =  -2.870e-19
 Percent error, 100*(Cat-|An|)/(Cat+|An|)  =  -0.00
                               Iterations  =   3
                                  Total H  = 1.110124e+02
                                  Total O  = 5.550622e+01

----------------------------Distribution of species----------------------------

                                               Log       Log       Log    mole V
   Species          Molality    Activity  Molality  Activity     Gamma   cm³/mol

   OH-             1.109e-07   9.985e-08    -6.955    -7.001    -0.046     -4.03
   H+              1.109e-07   1.013e-07    -6.955    -6.994    -0.039      0.00
   H2O             5.551e+01   9.997e-01     1.744    -0.000     0.000     18.07
C_i           1.000e-02
   C_i+            1.000e-02   9.019e-03    -2.000    -2.045    -0.045     (0)  
D_i           1.000e-02
   D_i-            1.000e-02   9.019e-03    -2.000    -2.045    -0.045     (0)  
H(0)          1.450e-25
   H2              7.252e-26   7.269e-26   -25.140   -25.139     0.001     28.61
O(0)          0.000e+00
   O2              0.000e+00   0.000e+00   -42.104   -42.103     0.001     30.40

------------------------------Saturation indices-------------------------------

  Phase               SI** log IAP   log K(298 K,   1 atm)

  H2(g)           -22.04    -25.14   -3.10  H2
  H2O(g)           -1.50     -0.00    1.50  H2O
  O2(g)           -39.21    -42.10   -2.89  O2

**For a gas, SI = log10(fugacity). Fugacity = pressure * phi / 1 atm.
  For ideal gases, phi = 1.

------------------
End of simulation.
------------------

------------------------------------
Reading input data for simulation 3.
------------------------------------

	SOLUTION 101 #anode (+)
		pH 7 charge
		temp 25
		C_i	10
		D_i 10
		potential 100
	END
-------------------------------------------
Beginning of initial solution calculations.
-------------------------------------------

Initial solution 101.	

-----------------------------Solution composition------------------------------

	Elements           Molality       Moles

	C_i               1.000e-02   1.000e-02
	D_i               1.000e-02   1.000e-02

----------------------------Description of solution----------------------------

                                       pH  =   6.994      Charge balance
                                       pe  =   4.000    
      Specific Conductance (µS/cm,  25°C)  = 0
                          Density (g/cm³)  =   0.99706
                               Volume (L)  =   1.00297
                        Activity of water  =   1.000
                 Ionic strength (mol/kgw)  =   1.000e-02
                       Mass of water (kg)  =   1.000e+00
                 Total alkalinity (eq/kg)  =   2.870e-19
                         Temperature (°C)  =  25.00
              Electrical Potential (Volt)  = 100.00
                  Electrical balance (eq)  =  -2.870e-19
 Percent error, 100*(Cat-|An|)/(Cat+|An|)  =  -0.00
                               Iterations  =   3
                                  Total H  = 1.110124e+02
                                  Total O  = 5.550622e+01

----------------------------Distribution of species----------------------------

                                               Log       Log       Log    mole V
   Species          Molality    Activity  Molality  Activity     Gamma   cm³/mol

   OH-             1.109e-07   9.985e-08    -6.955    -7.001    -0.046     -4.03
   H+              1.109e-07   1.013e-07    -6.955    -6.994    -0.039      0.00
   H2O             5.551e+01   9.997e-01     1.744    -0.000     0.000     18.07
C_i           1.000e-02
   C_i+            1.000e-02   9.019e-03    -2.000    -2.045    -0.045     (0)  
D_i           1.000e-02
   D_i-            1.000e-02   9.019e-03    -2.000    -2.045    -0.045     (0)  
H(0)          1.450e-25
   H2              7.252e-26   7.269e-26   -25.140   -25.139     0.001     28.61
O(0)          0.000e+00
   O2              0.000e+00   0.000e+00   -42.104   -42.103     0.001     30.40

------------------------------Saturation indices-------------------------------

  Phase               SI** log IAP   log K(298 K,   1 atm)

  H2(g)           -22.04    -25.14   -3.10  H2
  H2O(g)           -1.50     -0.00    1.50  H2O
  O2(g)           -39.21    -42.10   -2.89  O2

**For a gas, SI = log10(fugacity). Fugacity = pressure * phi / 1 atm.
  For ideal gases, phi = 1.

------------------
End of simulation.
------------------

------------------------------------
Reading input data for simulation 4.
------------------------------------

	TRANSPORT
		cells 100
		length 0.01
		shifts 6
		time_step 1 [day] # 1day
		flow_direction diffusion_only
		boundary_conditions conditions 1 1
		multi_d true 0.4e-9 0.4 0.4 1.0
		punch_cells 1-100
		implicit true 1
		current 1
	USER_PUNCH
WARNING: Cell-lengths were read for 1 cells. Last value is used till cell 100.
WARNING: No dispersivities were read; disp = 0 assumed.
WARNING: No porosities were read; used the value 4.00e-01 from -multi_D.
		headings dist A_i B_i C_i D_i gA_i gB_i gC_i gD_i potential current
		start
		10 PUNCH dist
		20 PUNCH MOL("A_i+")*1e3, MOL("B_i-")*1e3, MOL("C_i+")*1e3, MOL("D_i-")*1e3
		30 PUNCH GAMMA("A_i+"), GAMMA("B_i-"), GAMMA("C_i+"), GAMMA("D_i-")
		40 PUNCH POT_V, current
		end
	SELECTED_OUTPUT
	    file           data/sprocati2019-case1.csv
	    reset          false
	    time			true
	END
------------------------------------
Beginning of transport calculations.
------------------------------------

-------------------------------
Equilibrating initial solutions
-------------------------------

Using solution 0.	

-----------------------------Solution composition------------------------------

	Elements           Molality       Moles

	A_i               1.000e-02   1.000e-02
	B_i               1.000e-02   1.000e-02

----------------------------Description of solution----------------------------

                                       pH  =   6.994      Charge balance
                                       pe  =   4.000      Adjusted to redox equilibrium
      Specific Conductance (µS/cm,  25°C)  = 0
                          Density (g/cm³)  =   0.99706
                               Volume (L)  =   1.00297
                        Activity of water  =   1.000
                 Ionic strength (mol/kgw)  =   1.000e-02
                       Mass of water (kg)  =   1.000e+00
                 Total alkalinity (eq/kg)  =   4.896e-19
                         Temperature (°C)  =  25.00
                  Electrical balance (eq)  =  -4.896e-19
 Percent error, 100*(Cat-|An|)/(Cat+|An|)  =  -0.00
                               Iterations  =   0
                                  Total H  = 1.110124e+02
                                  Total O  = 5.550622e+01

----------------------------Distribution of species----------------------------

                                               Log       Log       Log    mole V
   Species          Molality    Activity  Molality  Activity     Gamma   cm³/mol

   OH-             1.109e-07   9.985e-08    -6.955    -7.001    -0.046     -4.03
   H+              1.109e-07   1.013e-07    -6.955    -6.994    -0.039      0.00
   H2O             5.551e+01   9.997e-01     1.744    -0.000     0.000     18.07
A_i           1.000e-02
   A_i+            1.000e-02   9.019e-03    -2.000    -2.045    -0.045     (0)  
B_i           1.000e-02
   B_i-            1.000e-02   9.019e-03    -2.000    -2.045    -0.045     (0)  
H(0)          1.450e-25
   H2              7.252e-26   7.269e-26   -25.140   -25.139     0.001     28.61
O(0)          0.000e+00
   O2              0.000e+00   0.000e+00   -42.104   -42.103     0.001     30.40

------------------------------Saturation indices-------------------------------

  Phase               SI** log IAP   log K(298 K,   1 atm)

  H2(g)           -22.04    -25.14   -3.10  H2
  H2O(g)           -1.50     -0.00    1.50  H2O
  O2(g)           -39.21    -42.10   -2.89  O2

**For a gas, SI = log10(fugacity). Fugacity = pressure * phi / 1 atm.
  For ideal gases, phi = 1.

Using solution 1.	

-----------------------------Solution composition------------------------------

	Elements           Molality       Moles

	C_i               1.000e-02   1.000e-02
	D_i               1.000e-02   1.000e-02

----------------------------Description of solution----------------------------

                                       pH  =   6.994      Charge balance
                                       pe  =   4.000      Adjusted to redox equilibrium
      Specific Conductance (µS/cm,  25°C)  = 0
                          Density (g/cm³)  =   0.99706
                               Volume (L)  =   1.00297
                        Activity of water  =   1.000
                 Ionic strength (mol/kgw)  =   1.000e-02
                       Mass of water (kg)  =   1.000e+00
                 Total alkalinity (eq/kg)  =   2.873e-19
                         Temperature (°C)  =  25.00
                  Electrical balance (eq)  =  -2.873e-19
 Percent error, 100*(Cat-|An|)/(Cat+|An|)  =  -0.00
                               Iterations  =   0
                                  Total H  = 1.110124e+02
                                  Total O  = 5.550622e+01

----------------------------Distribution of species----------------------------

                                               Log       Log       Log    mole V
   Species          Molality    Activity  Molality  Activity     Gamma   cm³/mol

   OH-             1.109e-07   9.985e-08    -6.955    -7.001    -0.046     -4.03
   H+              1.109e-07   1.013e-07    -6.955    -6.994    -0.039      0.00
   H2O             5.551e+01   9.997e-01     1.744    -0.000     0.000     18.07
C_i           1.000e-02
   C_i+            1.000e-02   9.019e-03    -2.000    -2.045    -0.045     (0)  
D_i           1.000e-02
   D_i-            1.000e-02   9.019e-03    -2.000    -2.045    -0.045     (0)  
H(0)          1.450e-25
   H2              7.252e-26   7.269e-26   -25.140   -25.139     0.001     28.61
O(0)          0.000e+00
   O2              0.000e+00   0.000e+00   -42.104   -42.103     0.001     30.40

------------------------------Saturation indices-------------------------------

  Phase               SI** log IAP   log K(298 K,   1 atm)

  H2(g)           -22.04    -25.14   -3.10  H2
  H2O(g)           -1.50     -0.00    1.50  H2O
  O2(g)           -39.21    -42.10   -2.89  O2

**For a gas, SI = log10(fugacity). Fugacity = pressure * phi / 1 atm.
  For ideal gases, phi = 1.

Using solution 2.	

-----------------------------Solution composition------------------------------

	Elements           Molality       Moles

	C_i               1.000e-02   1.000e-02
	D_i               1.000e-02   1.000e-02

----------------------------Description of solution----------------------------

                                       pH  =   6.994      Charge balance
                                       pe  =   4.000      Adjusted to redox equilibrium
      Specific Conductance (µS/cm,  25°C)  = 0
                          Density (g/cm³)  =   0.99706
                               Volume (L)  =   1.00297
                        Activity of water  =   1.000
                 Ionic strength (mol/kgw)  =   1.000e-02
                       Mass of water (kg)  =   1.000e+00
                 Total alkalinity (eq/kg)  =   2.873e-19
                         Temperature (°C)  =  25.00
                  Electrical balance (eq)  =  -2.873e-19
 Percent error, 100*(Cat-|An|)/(Cat+|An|)  =  -0.00
                               Iterations  =   0
                                  Total H  = 1.110124e+02
                                  Total O  = 5.550622e+01

----------------------------Distribution of species----------------------------

                                               Log       Log       Log    mole V
   Species          Molality    Activity  Molality  Activity     Gamma   cm³/mol

   OH-             1.109e-07   9.985e-08    -6.955    -7.001    -0.046     -4.03
   H+              1.109e-07   1.013e-07    -6.955    -6.994    -0.039      0.00
   H2O             5.551e+01   9.997e-01     1.744    -0.000     0.000     18.07
C_i           1.000e-02
   C_i+            1.000e-02   9.019e-03    -2.000    -2.045    -0.045     (0)  
D_i           1.000e-02
   D_i-            1.000e-02   9.019e-03    -2.000    -2.045    -0.045     (0)  
H(0)          1.450e-25
   H2              7.252e-26   7.269e-26   -25.140   -25.139     0.001     28.61
O(0)          0.000e+00
   O2              0.000e+00   0.000e+00   -42.104   -42.103     0.001     30.40

------------------------------Saturation indices-------------------------------

  Phase               SI** log IAP   log K(298 K,   1 atm)

  H2(g)           -22.04    -25.14   -3.10  H2
  H2O(g)           -1.50     -0.00    1.50  H2O
  O2(g)           -39.21    -42.10   -2.89  O2

**For a gas, SI = log10(fugacity). Fugacity = pressure * phi / 1 atm.
  For ideal gases, phi = 1.

Using solution 3.	

-----------------------------Solution composition------------------------------

	Elements           Molality       Moles

	C_i               1.000e-02   1.000e-02
	D_i               1.000e-02   1.000e-02

----------------------------Description of solution----------------------------

                                       pH  =   6.994      Charge balance
                                       pe  =   4.000      Adjusted to redox equilibrium
      Specific Conductance (µS/cm,  25°C)  = 0
                          Density (g/cm³)  =   0.99706
                               Volume (L)  =   1.00297
                        Activity of water  =   1.000
                 Ionic strength (mol/kgw)  =   1.000e-02
                       Mass of water (kg)  =   1.000e+00
                 Total alkalinity (eq/kg)  =   2.873e-19
                         Temperature (°C)  =  25.00
                  Electrical balance (eq)  =  -2.873e-19
 Percent error, 100*(Cat-|An|)/(Cat+|An|)  =  -0.00
                               Iterations  =   0
                                  Total H  = 1.110124e+02
                                  Total O  = 5.550622e+01

----------------------------Distribution of species----------------------------

                                               Log       Log       Log    mole V
   Species          Molality    Activity  Molality  Activity     Gamma   cm³/mol

   OH-             1.109e-07   9.985e-08    -6.955    -7.001    -0.046     -4.03
   H+              1.109e-07   1.013e-07    -6.955    -6.994    -0.039      0.00
   H2O             5.551e+01   9.997e-01     1.744    -0.000     0.000     18.07
C_i           1.000e-02
   C_i+            1.000e-02   9.019e-03    -2.000    -2.045    -0.045     (0)  
D_i           1.000e-02
   D_i-            1.000e-02   9.019e-03    -2.000    -2.045    -0.045     (0)  
H(0)          1.450e-25
   H2              7.252e-26   7.269e-26   -25.140   -25.139     0.001     28.61
O(0)          0.000e+00
   O2              0.000e+00   0.000e+00   -42.104   -42.103     0.001     30.40

------------------------------Saturation indices-------------------------------

  Phase               SI** log IAP   log K(298 K,   1 atm)

  H2(g)           -22.04    -25.14   -3.10  H2
  H2O(g)           -1.50     -0.00    1.50  H2O
  O2(g)           -39.21    -42.10   -2.89  O2

**For a gas, SI = log10(fugacity). Fugacity = pressure * phi / 1 atm.
  For ideal gases, phi = 1.

Using solution 4.	

-----------------------------Solution composition------------------------------

	Elements           Molality       Moles

	C_i               1.000e-02   1.000e-02
	D_i               1.000e-02   1.000e-02

----------------------------Description of solution----------------------------

                                       pH  =   6.994      Charge balance
                                       pe  =   4.000      Adjusted to redox equilibrium
      Specific Conductance (µS/cm,  25°C)  = 0
                          Density (g/cm³)  =   0.99706
                               Volume (L)  =   1.00297
                        Activity of water  =   1.000
                 Ionic strength (mol/kgw)  =   1.000e-02
                       Mass of water (kg)  =   1.000e+00
                 Total alkalinity (eq/kg)  =   2.873e-19
                         Temperature (°C)  =  25.00
                  Electrical balance (eq)  =  -2.873e-19
 Percent error, 100*(Cat-|An|)/(Cat+|An|)  =  -0.00
                               Iterations  =   0
                                  Total H  = 1.110124e+02
                                  Total O  = 5.550622e+01

----------------------------Distribution of species----------------------------

                                               Log       Log       Log    mole V
   Species          Molality    Activity  Molality  Activity     Gamma   cm³/mol

   OH-             1.109e-07   9.985e-08    -6.955    -7.001    -0.046     -4.03
   H+              1.109e-07   1.013e-07    -6.955    -6.994    -0.039      0.00
   H2O             5.551e+01   9.997e-01     1.744    -0.000     0.000     18.07
C_i           1.000e-02
   C_i+            1.000e-02   9.019e-03    -2.000    -2.045    -0.045     (0)  
D_i           1.000e-02
   D_i-            1.000e-02   9.019e-03    -2.000    -2.045    -0.045     (0)  
H(0)          1.450e-25
   H2              7.252e-26   7.269e-26   -25.140   -25.139     0.001     28.61
O(0)          0.000e+00
   O2              0.000e+00   0.000e+00   -42.104   -42.103     0.001     30.40

------------------------------Saturation indices-------------------------------

  Phase               SI** log IAP   log K(298 K,   1 atm)

  H2(g)           -22.04    -25.14   -3.10  H2
  H2O(g)           -1.50     -0.00    1.50  H2O
  O2(g)           -39.21    -42.10   -2.89  O2

**For a gas, SI = log10(fugacity). Fugacity = pressure * phi / 1 atm.
  For ideal gases, phi = 1.

Using solution 5.	

-----------------------------Solution composition------------------------------

	Elements           Molality       Moles

	C_i               1.000e-02   1.000e-02
	D_i               1.000e-02   1.000e-02

----------------------------Description of solution----------------------------

                                       pH  =   6.994      Charge balance
                                       pe  =   4.000      Adjusted to redox equilibrium
      Specific Conductance (µS/cm,  25°C)  = 0
                          Density (g/cm³)  =   0.99706
                               Volume (L)  =   1.00297
                        Activity of water  =   1.000
                 Ionic strength (mol/kgw)  =   1.000e-02
                       Mass of water (kg)  =   1.000e+00
                 Total alkalinity (eq/kg)  =   2.873e-19
                         Temperature (°C)  =  25.00
                  Electrical balance (eq)  =  -2.873e-19
 Percent error, 100*(Cat-|An|)/(Cat+|An|)  =  -0.00
                               Iterations  =   0
                                  Total H  = 1.110124e+02
                                  Total O  = 5.550622e+01

----------------------------Distribution of species----------------------------

                                               Log       Log       Log    mole V
   Species          Molality    Activity  Molality  Activity     Gamma   cm³/mol

   OH-             1.109e-07   9.985e-08    -6.955    -7.001    -0.046     -4.03
   H+              1.109e-07   1.013e-07    -6.955    -6.994    -0.039      0.00
   H2O             5.551e+01   9.997e-01     1.744    -0.000     0.000     18.07
C_i           1.000e-02
   C_i+            1.000e-02   9.019e-03    -2.000    -2.045    -0.045     (0)  
D_i           1.000e-02
   D_i-            1.000e-02   9.019e-03    -2.000    -2.045    -0.045     (0)  
H(0)          1.450e-25
   H2              7.252e-26   7.269e-26   -25.140   -25.139     0.001     28.61
O(0)          0.000e+00
   O2              0.000e+00   0.000e+00   -42.104   -42.103     0.001     30.40

------------------------------Saturation indices-------------------------------

  Phase               SI** log IAP   log K(298 K,   1 atm)

  H2(g)           -22.04    -25.14   -3.10  H2
  H2O(g)           -1.50     -0.00    1.50  H2O
  O2(g)           -39.21    -42.10   -2.89  O2

**For a gas, SI = log10(fugacity). Fugacity = pressure * phi / 1 atm.
  For ideal gases, phi = 1.

Using solution 6.	

-----------------------------Solution composition------------------------------

	Elements           Molality       Moles

	C_i               1.000e-02   1.000e-02
	D_i               1.000e-02   1.000e-02

----------------------------Description of solution----------------------------

                                       pH  =   6.994      Charge balance
                                       pe  =   4.000      Adjusted to redox equilibrium
      Specific Conductance (µS/cm,  25°C)  = 0
                          Density (g/cm³)  =   0.99706
                               Volume (L)  =   1.00297
                        Activity of water  =   1.000
                 Ionic strength (mol/kgw)  =   1.000e-02
                       Mass of water (kg)  =   1.000e+00
                 Total alkalinity (eq/kg)  =   2.873e-19
                         Temperature (°C)  =  25.00
                  Electrical balance (eq)  =  -2.873e-19
 Percent error, 100*(Cat-|An|)/(Cat+|An|)  =  -0.00
                               Iterations  =   0
                                  Total H  = 1.110124e+02
                                  Total O  = 5.550622e+01

----------------------------Distribution of species----------------------------

                                               Log       Log       Log    mole V
   Species          Molality    Activity  Molality  Activity     Gamma   cm³/mol

   OH-             1.109e-07   9.985e-08    -6.955    -7.001    -0.046     -4.03
   H+              1.109e-07   1.013e-07    -6.955    -6.994    -0.039      0.00
   H2O             5.551e+01   9.997e-01     1.744    -0.000     0.000     18.07
C_i           1.000e-02
   C_i+            1.000e-02   9.019e-03    -2.000    -2.045    -0.045     (0)  
D_i           1.000e-02
   D_i-            1.000e-02   9.019e-03    -2.000    -2.045    -0.045     (0)  
H(0)          1.450e-25
   H2              7.252e-26   7.269e-26   -25.140   -25.139     0.001     28.61
O(0)          0.000e+00
   O2              0.000e+00   0.000e+00   -42.104   -42.103     0.001     30.40

------------------------------Saturation indices-------------------------------

  Phase               SI** log IAP   log K(298 K,   1 atm)

  H2(g)           -22.04    -25.14   -3.10  H2
  H2O(g)           -1.50     -0.00    1.50  H2O
  O2(g)           -39.21    -42.10   -2.89  O2

**For a gas, SI = log10(fugacity). Fugacity = pressure * phi / 1 atm.
  For ideal gases, phi = 1.

Using solution 7.	

-----------------------------Solution composition------------------------------

	Elements           Molality       Moles

	C_i               1.000e-02   1.000e-02
	D_i               1.000e-02   1.000e-02

----------------------------Description of solution----------------------------

                                       pH  =   6.994      Charge balance
                                       pe  =   4.000      Adjusted to redox equilibrium
      Specific Conductance (µS/cm,  25°C)  = 0
                          Density (g/cm³)  =   0.99706
                               Volume (L)  =   1.00297
                        Activity of water  =   1.000
                 Ionic strength (mol/kgw)  =   1.000e-02
                       Mass of water (kg)  =   1.000e+00
                 Total alkalinity (eq/kg)  =   2.873e-19
                         Temperature (°C)  =  25.00
                  Electrical balance (eq)  =  -2.873e-19
 Percent error, 100*(Cat-|An|)/(Cat+|An|)  =  -0.00
                               Iterations  =   0
                                  Total H  = 1.110124e+02
                                  Total O  = 5.550622e+01

----------------------------Distribution of species----------------------------

                                               Log       Log       Log    mole V
   Species          Molality    Activity  Molality  Activity     Gamma   cm³/mol

   OH-             1.109e-07   9.985e-08    -6.955    -7.001    -0.046     -4.03
   H+              1.109e-07   1.013e-07    -6.955    -6.994    -0.039      0.00
   H2O             5.551e+01   9.997e-01     1.744    -0.000     0.000     18.07
C_i           1.000e-02
   C_i+            1.000e-02   9.019e-03    -2.000    -2.045    -0.045     (0)  
D_i           1.000e-02
   D_i-            1.000e-02   9.019e-03    -2.000    -2.045    -0.045     (0)  
H(0)          1.450e-25
   H2              7.252e-26   7.269e-26   -25.140   -25.139     0.001     28.61
O(0)          0.000e+00
   O2              0.000e+00   0.000e+00   -42.104   -42.103     0.001     30.40

------------------------------Saturation indices-------------------------------

  Phase               SI** log IAP   log K(298 K,   1 atm)

  H2(g)           -22.04    -25.14   -3.10  H2
  H2O(g)           -1.50     -0.00    1.50  H2O
  O2(g)           -39.21    -42.10   -2.89  O2

**For a gas, SI = log10(fugacity). Fugacity = pressure * phi / 1 atm.
  For ideal gases, phi = 1.

Using solution 8.	

-----------------------------Solution composition------------------------------

	Elements           Molality       Moles

	C_i               1.000e-02   1.000e-02
	D_i               1.000e-02   1.000e-02

----------------------------Description of solution----------------------------

                                       pH  =   6.994      Charge balance
                                       pe  =   4.000      Adjusted to redox equilibrium
      Specific Conductance (µS/cm,  25°C)  = 0
                          Density (g/cm³)  =   0.99706
                               Volume (L)  =   1.00297
                        Activity of water  =   1.000
                 Ionic strength (mol/kgw)  =   1.000e-02
                       Mass of water (kg)  =   1.000e+00
                 Total alkalinity (eq/kg)  =   2.873e-19
                         Temperature (°C)  =  25.00
                  Electrical balance (eq)  =  -2.873e-19
 Percent error, 100*(Cat-|An|)/(Cat+|An|)  =  -0.00
                               Iterations  =   0
                                  Total H  = 1.110124e+02
                                  Total O  = 5.550622e+01

----------------------------Distribution of species----------------------------

                                               Log       Log       Log    mole V
   Species          Molality    Activity  Molality  Activity     Gamma   cm³/mol

   OH-             1.109e-07   9.985e-08    -6.955    -7.001    -0.046     -4.03
   H+              1.109e-07   1.013e-07    -6.955    -6.994    -0.039      0.00
   H2O             5.551e+01   9.997e-01     1.744    -0.000     0.000     18.07
C_i           1.000e-02
   C_i+            1.000e-02   9.019e-03    -2.000    -2.045    -0.045     (0)  
D_i           1.000e-02
   D_i-            1.000e-02   9.019e-03    -2.000    -2.045    -0.045     (0)  
H(0)          1.450e-25
   H2              7.252e-26   7.269e-26   -25.140   -25.139     0.001     28.61
O(0)          0.000e+00
   O2              0.000e+00   0.000e+00   -42.104   -42.103     0.001     30.40

------------------------------Saturation indices-------------------------------

  Phase               SI** log IAP   log K(298 K,   1 atm)

  H2(g)           -22.04    -25.14   -3.10  H2
  H2O(g)           -1.50     -0.00    1.50  H2O
  O2(g)           -39.21    -42.10   -2.89  O2

**For a gas, SI = log10(fugacity). Fugacity = pressure * phi / 1 atm.
  For ideal gases, phi = 1.

Using solution 9.	

-----------------------------Solution composition------------------------------

	Elements           Molality       Moles

	C_i               1.000e-02   1.000e-02
	D_i               1.000e-02   1.000e-02

----------------------------Description of solution----------------------------

                                       pH  =   6.994      Charge balance
                                       pe  =   4.000      Adjusted to redox equilibrium
      Specific Conductance (µS/cm,  25°C)  = 0
                          Density (g/cm³)  =   0.99706
                               Volume (L)  =   1.00297
                        Activity of water  =   1.000
                 Ionic strength (mol/kgw)  =   1.000e-02
                       Mass of water (kg)  =   1.000e+00
                 Total alkalinity (eq/kg)  =   2.873e-19
                         Temperature (°C)  =  25.00
                  Electrical balance (eq)  =  -2.873e-19
 Percent error, 100*(Cat-|An|)/(Cat+|An|)  =  -0.00
                               Iterations  =   0
                                  Total H  = 1.110124e+02
                                  Total O  = 5.550622e+01

----------------------------Distribution of species----------------------------

                                               Log       Log       Log    mole V
   Species          Molality    Activity  Molality  Activity     Gamma   cm³/mol

   OH-             1.109e-07   9.985e-08    -6.955    -7.001    -0.046     -4.03
   H+              1.109e-07   1.013e-07    -6.955    -6.994    -0.039      0.00
   H2O             5.551e+01   9.997e-01     1.744    -0.000     0.000     18.07
C_i           1.000e-02
   C_i+            1.000e-02   9.019e-03    -2.000    -2.045    -0.045     (0)  
D_i           1.000e-02
   D_i-            1.000e-02   9.019e-03    -2.000    -2.045    -0.045     (0)  
H(0)          1.450e-25
   H2              7.252e-26   7.269e-26   -25.140   -25.139     0.001     28.61
O(0)          0.000e+00
   O2              0.000e+00   0.000e+00   -42.104   -42.103     0.001     30.40

------------------------------Saturation indices-------------------------------

  Phase               SI** log IAP   log K(298 K,   1 atm)

  H2(g)           -22.04    -25.14   -3.10  H2
  H2O(g)           -1.50     -0.00    1.50  H2O
  O2(g)           -39.21    -42.10   -2.89  O2

**For a gas, SI = log10(fugacity). Fugacity = pressure * phi / 1 atm.
  For ideal gases, phi = 1.

Using solution 10.	

-----------------------------Solution composition------------------------------

	Elements           Molality       Moles

	C_i               1.000e-02   1.000e-02
	D_i               1.000e-02   1.000e-02

----------------------------Description of solution----------------------------

                                       pH  =   6.994      Charge balance
                                       pe  =   4.000      Adjusted to redox equilibrium
      Specific Conductance (µS/cm,  25°C)  = 0
                          Density (g/cm³)  =   0.99706
                               Volume (L)  =   1.00297
                        Activity of water  =   1.000
                 Ionic strength (mol/kgw)  =   1.000e-02
                       Mass of water (kg)  =   1.000e+00
                 Total alkalinity (eq/kg)  =   2.873e-19
                         Temperature (°C)  =  25.00
                  Electrical balance (eq)  =  -2.873e-19
 Percent error, 100*(Cat-|An|)/(Cat+|An|)  =  -0.00
                               Iterations  =   0
                                  Total H  = 1.110124e+02
                                  Total O  = 5.550622e+01

----------------------------Distribution of species----------------------------

                                               Log       Log       Log    mole V
   Species          Molality    Activity  Molality  Activity     Gamma   cm³/mol

   OH-             1.109e-07   9.985e-08    -6.955    -7.001    -0.046     -4.03
   H+              1.109e-07   1.013e-07    -6.955    -6.994    -0.039      0.00
   H2O             5.551e+01   9.997e-01     1.744    -0.000     0.000     18.07
C_i           1.000e-02
   C_i+            1.000e-02   9.019e-03    -2.000    -2.045    -0.045     (0)  
D_i           1.000e-02
   D_i-            1.000e-02   9.019e-03    -2.000    -2.045    -0.045     (0)  
H(0)          1.450e-25
   H2              7.252e-26   7.269e-26   -25.140   -25.139     0.001     28.61
O(0)          0.000e+00
   O2              0.000e+00   0.000e+00   -42.104   -42.103     0.001     30.40

------------------------------Saturation indices-------------------------------

  Phase               SI** log IAP   log K(298 K,   1 atm)

  H2(g)           -22.04    -25.14   -3.10  H2
  H2O(g)           -1.50     -0.00    1.50  H2O
  O2(g)           -39.21    -42.10   -2.89  O2

**For a gas, SI = log10(fugacity). Fugacity = pressure * phi / 1 atm.
  For ideal gases, phi = 1.

Using solution 11.	

-----------------------------Solution composition------------------------------

	Elements           Molality       Moles

	C_i               1.000e-02   1.000e-02
	D_i               1.000e-02   1.000e-02

----------------------------Description of solution----------------------------

                                       pH  =   6.994      Charge balance
                                       pe  =   4.000      Adjusted to redox equilibrium
      Specific Conductance (µS/cm,  25°C)  = 0
                          Density (g/cm³)  =   0.99706
                               Volume (L)  =   1.00297
                        Activity of water  =   1.000
                 Ionic strength (mol/kgw)  =   1.000e-02
                       Mass of water (kg)  =   1.000e+00
                 Total alkalinity (eq/kg)  =   2.873e-19
                         Temperature (°C)  =  25.00
                  Electrical balance (eq)  =  -2.873e-19
 Percent error, 100*(Cat-|An|)/(Cat+|An|)  =  -0.00
                               Iterations  =   0
                                  Total H  = 1.110124e+02
                                  Total O  = 5.550622e+01

----------------------------Distribution of species----------------------------

                                               Log       Log       Log    mole V
   Species          Molality    Activity  Molality  Activity     Gamma   cm³/mol

   OH-             1.109e-07   9.985e-08    -6.955    -7.001    -0.046     -4.03
   H+              1.109e-07   1.013e-07    -6.955    -6.994    -0.039      0.00
   H2O             5.551e+01   9.997e-01     1.744    -0.000     0.000     18.07
C_i           1.000e-02
   C_i+            1.000e-02   9.019e-03    -2.000    -2.045    -0.045     (0)  
D_i           1.000e-02
   D_i-            1.000e-02   9.019e-03    -2.000    -2.045    -0.045     (0)  
H(0)          1.450e-25
   H2              7.252e-26   7.269e-26   -25.140   -25.139     0.001     28.61
O(0)          0.000e+00
   O2              0.000e+00   0.000e+00   -42.104   -42.103     0.001     30.40

------------------------------Saturation indices-------------------------------

  Phase               SI** log IAP   log K(298 K,   1 atm)

  H2(g)           -22.04    -25.14   -3.10  H2
  H2O(g)           -1.50     -0.00    1.50  H2O
  O2(g)           -39.21    -42.10   -2.89  O2

**For a gas, SI = log10(fugacity). Fugacity = pressure * phi / 1 atm.
  For ideal gases, phi = 1.

Using solution 12.	

-----------------------------Solution composition------------------------------

	Elements           Molality       Moles

	C_i               1.000e-02   1.000e-02
	D_i               1.000e-02   1.000e-02

----------------------------Description of solution----------------------------

                                       pH  =   6.994      Charge balance
                                       pe  =   4.000      Adjusted to redox equilibrium
      Specific Conductance (µS/cm,  25°C)  = 0
                          Density (g/cm³)  =   0.99706
                               Volume (L)  =   1.00297
                        Activity of water  =   1.000
                 Ionic strength (mol/kgw)  =   1.000e-02
                       Mass of water (kg)  =   1.000e+00
                 Total alkalinity (eq/kg)  =   2.873e-19
                         Temperature (°C)  =  25.00
                  Electrical balance (eq)  =  -2.873e-19
 Percent error, 100*(Cat-|An|)/(Cat+|An|)  =  -0.00
                               Iterations  =   0
                                  Total H  = 1.110124e+02
                                  Total O  = 5.550622e+01

----------------------------Distribution of species----------------------------

                                               Log       Log       Log    mole V
   Species          Molality    Activity  Molality  Activity     Gamma   cm³/mol

   OH-             1.109e-07   9.985e-08    -6.955    -7.001    -0.046     -4.03
   H+              1.109e-07   1.013e-07    -6.955    -6.994    -0.039      0.00
   H2O             5.551e+01   9.997e-01     1.744    -0.000     0.000     18.07
C_i           1.000e-02
   C_i+            1.000e-02   9.019e-03    -2.000    -2.045    -0.045     (0)  
D_i           1.000e-02
   D_i-            1.000e-02   9.019e-03    -2.000    -2.045    -0.045     (0)  
H(0)          1.450e-25
   H2              7.252e-26   7.269e-26   -25.140   -25.139     0.001     28.61
O(0)          0.000e+00
   O2              0.000e+00   0.000e+00   -42.104   -42.103     0.001     30.40

------------------------------Saturation indices-------------------------------

  Phase               SI** log IAP   log K(298 K,   1 atm)

  H2(g)           -22.04    -25.14   -3.10  H2
  H2O(g)           -1.50     -0.00    1.50  H2O
  O2(g)           -39.21    -42.10   -2.89  O2

**For a gas, SI = log10(fugacity). Fugacity = pressure * phi / 1 atm.
  For ideal gases, phi = 1.

Using solution 13.	

-----------------------------Solution composition------------------------------

	Elements           Molality       Moles

	C_i               1.000e-02   1.000e-02
	D_i               1.000e-02   1.000e-02

----------------------------Description of solution----------------------------

                                       pH  =   6.994      Charge balance
                                       pe  =   4.000      Adjusted to redox equilibrium
      Specific Conductance (µS/cm,  25°C)  = 0
                          Density (g/cm³)  =   0.99706
                               Volume (L)  =   1.00297
                        Activity of water  =   1.000
                 Ionic strength (mol/kgw)  =   1.000e-02
                       Mass of water (kg)  =   1.000e+00
                 Total alkalinity (eq/kg)  =   2.873e-19
                         Temperature (°C)  =  25.00
                  Electrical balance (eq)  =  -2.873e-19
 Percent error, 100*(Cat-|An|)/(Cat+|An|)  =  -0.00
                               Iterations  =   0
                                  Total H  = 1.110124e+02
                                  Total O  = 5.550622e+01

----------------------------Distribution of species----------------------------

                                               Log       Log       Log    mole V
   Species          Molality    Activity  Molality  Activity     Gamma   cm³/mol

   OH-             1.109e-07   9.985e-08    -6.955    -7.001    -0.046     -4.03
   H+              1.109e-07   1.013e-07    -6.955    -6.994    -0.039      0.00
   H2O             5.551e+01   9.997e-01     1.744    -0.000     0.000     18.07
C_i           1.000e-02
   C_i+            1.000e-02   9.019e-03    -2.000    -2.045    -0.045     (0)  
D_i           1.000e-02
   D_i-            1.000e-02   9.019e-03    -2.000    -2.045    -0.045     (0)  
H(0)          1.450e-25
   H2              7.252e-26   7.269e-26   -25.140   -25.139     0.001     28.61
O(0)          0.000e+00
   O2              0.000e+00   0.000e+00   -42.104   -42.103     0.001     30.40

------------------------------Saturation indices-------------------------------

  Phase               SI** log IAP   log K(298 K,   1 atm)

  H2(g)           -22.04    -25.14   -3.10  H2
  H2O(g)           -1.50     -0.00    1.50  H2O
  O2(g)           -39.21    -42.10   -2.89  O2

**For a gas, SI = log10(fugacity). Fugacity = pressure * phi / 1 atm.
  For ideal gases, phi = 1.

Using solution 14.	

-----------------------------Solution composition------------------------------

	Elements           Molality       Moles

	C_i               1.000e-02   1.000e-02
	D_i               1.000e-02   1.000e-02

----------------------------Description of solution----------------------------

                                       pH  =   6.994      Charge balance
                                       pe  =   4.000      Adjusted to redox equilibrium
      Specific Conductance (µS/cm,  25°C)  = 0
                          Density (g/cm³)  =   0.99706
                               Volume (L)  =   1.00297
                        Activity of water  =   1.000
                 Ionic strength (mol/kgw)  =   1.000e-02
                       Mass of water (kg)  =   1.000e+00
                 Total alkalinity (eq/kg)  =   2.873e-19
                         Temperature (°C)  =  25.00
                  Electrical balance (eq)  =  -2.873e-19
 Percent error, 100*(Cat-|An|)/(Cat+|An|)  =  -0.00
                               Iterations  =   0
                                  Total H  = 1.110124e+02
                                  Total O  = 5.550622e+01

----------------------------Distribution of species----------------------------

                                               Log       Log       Log    mole V
   Species          Molality    Activity  Molality  Activity     Gamma   cm³/mol

   OH-             1.109e-07   9.985e-08    -6.955    -7.001    -0.046     -4.03
   H+              1.109e-07   1.013e-07    -6.955    -6.994    -0.039      0.00
   H2O             5.551e+01   9.997e-01     1.744    -0.000     0.000     18.07
C_i           1.000e-02
   C_i+            1.000e-02   9.019e-03    -2.000    -2.045    -0.045     (0)  
D_i           1.000e-02
   D_i-            1.000e-02   9.019e-03    -2.000    -2.045    -0.045     (0)  
H(0)          1.450e-25
   H2              7.252e-26   7.269e-26   -25.140   -25.139     0.001     28.61
O(0)          0.000e+00
   O2              0.000e+00   0.000e+00   -42.104   -42.103     0.001     30.40

------------------------------Saturation indices-------------------------------

  Phase               SI** log IAP   log K(298 K,   1 atm)

  H2(g)           -22.04    -25.14   -3.10  H2
  H2O(g)           -1.50     -0.00    1.50  H2O
  O2(g)           -39.21    -42.10   -2.89  O2

**For a gas, SI = log10(fugacity). Fugacity = pressure * phi / 1 atm.
  For ideal gases, phi = 1.

Using solution 15.	

-----------------------------Solution composition------------------------------

	Elements           Molality       Moles

	C_i               1.000e-02   1.000e-02
	D_i               1.000e-02   1.000e-02

----------------------------Description of solution----------------------------

                                       pH  =   6.994      Charge balance
                                       pe  =   4.000      Adjusted to redox equilibrium
      Specific Conductance (µS/cm,  25°C)  = 0
                          Density (g/cm³)  =   0.99706
                               Volume (L)  =   1.00297
                        Activity of water  =   1.000
                 Ionic strength (mol/kgw)  =   1.000e-02
                       Mass of water (kg)  =   1.000e+00
                 Total alkalinity (eq/kg)  =   2.873e-19
                         Temperature (°C)  =  25.00
                  Electrical balance (eq)  =  -2.873e-19
 Percent error, 100*(Cat-|An|)/(Cat+|An|)  =  -0.00
                               Iterations  =   0
                                  Total H  = 1.110124e+02
                                  Total O  = 5.550622e+01

----------------------------Distribution of species----------------------------

                                               Log       Log       Log    mole V
   Species          Molality    Activity  Molality  Activity     Gamma   cm³/mol

   OH-             1.109e-07   9.985e-08    -6.955    -7.001    -0.046     -4.03
   H+              1.109e-07   1.013e-07    -6.955    -6.994    -0.039      0.00
   H2O             5.551e+01   9.997e-01     1.744    -0.000     0.000     18.07
C_i           1.000e-02
   C_i+            1.000e-02   9.019e-03    -2.000    -2.045    -0.045     (0)  
D_i           1.000e-02
   D_i-            1.000e-02   9.019e-03    -2.000    -2.045    -0.045     (0)  
H(0)          1.450e-25
   H2              7.252e-26   7.269e-26   -25.140   -25.139     0.001     28.61
O(0)          0.000e+00
   O2              0.000e+00   0.000e+00   -42.104   -42.103     0.001     30.40

------------------------------Saturation indices-------------------------------

  Phase               SI** log IAP   log K(298 K,   1 atm)

  H2(g)           -22.04    -25.14   -3.10  H2
  H2O(g)           -1.50     -0.00    1.50  H2O
  O2(g)           -39.21    -42.10   -2.89  O2

**For a gas, SI = log10(fugacity). Fugacity = pressure * phi / 1 atm.
  For ideal gases, phi = 1.

Using solution 16.	

-----------------------------Solution composition------------------------------

	Elements           Molality       Moles

	C_i               1.000e-02   1.000e-02
	D_i               1.000e-02   1.000e-02

----------------------------Description of solution----------------------------

                                       pH  =   6.994      Charge balance
                                       pe  =   4.000      Adjusted to redox equilibrium
      Specific Conductance (µS/cm,  25°C)  = 0
                          Density (g/cm³)  =   0.99706
                               Volume (L)  =   1.00297
                        Activity of water  =   1.000
                 Ionic strength (mol/kgw)  =   1.000e-02
                       Mass of water (kg)  =   1.000e+00
                 Total alkalinity (eq/kg)  =   2.873e-19
                         Temperature (°C)  =  25.00
                  Electrical balance (eq)  =  -2.873e-19
 Percent error, 100*(Cat-|An|)/(Cat+|An|)  =  -0.00
                               Iterations  =   0
                                  Total H  = 1.110124e+02
                                  Total O  = 5.550622e+01

----------------------------Distribution of species----------------------------

                                               Log       Log       Log    mole V
   Species          Molality    Activity  Molality  Activity     Gamma   cm³/mol

   OH-             1.109e-07   9.985e-08    -6.955    -7.001    -0.046     -4.03
   H+              1.109e-07   1.013e-07    -6.955    -6.994    -0.039      0.00
   H2O             5.551e+01   9.997e-01     1.744    -0.000     0.000     18.07
C_i           1.000e-02
   C_i+            1.000e-02   9.019e-03    -2.000    -2.045    -0.045     (0)  
D_i           1.000e-02
   D_i-            1.000e-02   9.019e-03    -2.000    -2.045    -0.045     (0)  
H(0)          1.450e-25
   H2              7.252e-26   7.269e-26   -25.140   -25.139     0.001     28.61
O(0)          0.000e+00
   O2              0.000e+00   0.000e+00   -42.104   -42.103     0.001     30.40

------------------------------Saturation indices-------------------------------

  Phase               SI** log IAP   log K(298 K,   1 atm)

  H2(g)           -22.04    -25.14   -3.10  H2
  H2O(g)           -1.50     -0.00    1.50  H2O
  O2(g)           -39.21    -42.10   -2.89  O2

**For a gas, SI = log10(fugacity). Fugacity = pressure * phi / 1 atm.
  For ideal gases, phi = 1.

Using solution 17.	

-----------------------------Solution composition------------------------------

	Elements           Molality       Moles

	C_i               1.000e-02   1.000e-02
	D_i               1.000e-02   1.000e-02

----------------------------Description of solution----------------------------

                                       pH  =   6.994      Charge balance
                                       pe  =   4.000      Adjusted to redox equilibrium
      Specific Conductance (µS/cm,  25°C)  = 0
                          Density (g/cm³)  =   0.99706
                               Volume (L)  =   1.00297
                        Activity of water  =   1.000
                 Ionic strength (mol/kgw)  =   1.000e-02
                       Mass of water (kg)  =   1.000e+00
                 Total alkalinity (eq/kg)  =   2.873e-19
                         Temperature (°C)  =  25.00
                  Electrical balance (eq)  =  -2.873e-19
 Percent error, 100*(Cat-|An|)/(Cat+|An|)  =  -0.00
                               Iterations  =   0
                                  Total H  = 1.110124e+02
                                  Total O  = 5.550622e+01

----------------------------Distribution of species----------------------------

                                               Log       Log       Log    mole V
   Species          Molality    Activity  Molality  Activity     Gamma   cm³/mol

   OH-             1.109e-07   9.985e-08    -6.955    -7.001    -0.046     -4.03
   H+              1.109e-07   1.013e-07    -6.955    -6.994    -0.039      0.00
   H2O             5.551e+01   9.997e-01     1.744    -0.000     0.000     18.07
C_i           1.000e-02
   C_i+            1.000e-02   9.019e-03    -2.000    -2.045    -0.045     (0)  
D_i           1.000e-02
   D_i-            1.000e-02   9.019e-03    -2.000    -2.045    -0.045     (0)  
H(0)          1.450e-25
   H2              7.252e-26   7.269e-26   -25.140   -25.139     0.001     28.61
O(0)          0.000e+00
   O2              0.000e+00   0.000e+00   -42.104   -42.103     0.001     30.40

------------------------------Saturation indices-------------------------------

  Phase               SI** log IAP   log K(298 K,   1 atm)

  H2(g)           -22.04    -25.14   -3.10  H2
  H2O(g)           -1.50     -0.00    1.50  H2O
  O2(g)           -39.21    -42.10   -2.89  O2

**For a gas, SI = log10(fugacity). Fugacity = pressure * phi / 1 atm.
  For ideal gases, phi = 1.

Using solution 18.	

-----------------------------Solution composition------------------------------

	Elements           Molality       Moles

	C_i               1.000e-02   1.000e-02
	D_i               1.000e-02   1.000e-02

----------------------------Description of solution----------------------------

                                       pH  =   6.994      Charge balance
                                       pe  =   4.000      Adjusted to redox equilibrium
      Specific Conductance (µS/cm,  25°C)  = 0
                          Density (g/cm³)  =   0.99706
                               Volume (L)  =   1.00297
                        Activity of water  =   1.000
                 Ionic strength (mol/kgw)  =   1.000e-02
                       Mass of water (kg)  =   1.000e+00
                 Total alkalinity (eq/kg)  =   2.873e-19
                         Temperature (°C)  =  25.00
                  Electrical balance (eq)  =  -2.873e-19
 Percent error, 100*(Cat-|An|)/(Cat+|An|)  =  -0.00
                               Iterations  =   0
                                  Total H  = 1.110124e+02
                                  Total O  = 5.550622e+01

----------------------------Distribution of species----------------------------

                                               Log       Log       Log    mole V
   Species          Molality    Activity  Molality  Activity     Gamma   cm³/mol

   OH-             1.109e-07   9.985e-08    -6.955    -7.001    -0.046     -4.03
   H+              1.109e-07   1.013e-07    -6.955    -6.994    -0.039      0.00
   H2O             5.551e+01   9.997e-01     1.744    -0.000     0.000     18.07
C_i           1.000e-02
   C_i+            1.000e-02   9.019e-03    -2.000    -2.045    -0.045     (0)  
D_i           1.000e-02
   D_i-            1.000e-02   9.019e-03    -2.000    -2.045    -0.045     (0)  
H(0)          1.450e-25
   H2              7.252e-26   7.269e-26   -25.140   -25.139     0.001     28.61
O(0)          0.000e+00
   O2              0.000e+00   0.000e+00   -42.104   -42.103     0.001     30.40

------------------------------Saturation indices-------------------------------

  Phase               SI** log IAP   log K(298 K,   1 atm)

  H2(g)           -22.04    -25.14   -3.10  H2
  H2O(g)           -1.50     -0.00    1.50  H2O
  O2(g)           -39.21    -42.10   -2.89  O2

**For a gas, SI = log10(fugacity). Fugacity = pressure * phi / 1 atm.
  For ideal gases, phi = 1.

Using solution 19.	

-----------------------------Solution composition------------------------------

	Elements           Molality       Moles

	C_i               1.000e-02   1.000e-02
	D_i               1.000e-02   1.000e-02

----------------------------Description of solution----------------------------

                                       pH  =   6.994      Charge balance
                                       pe  =   4.000      Adjusted to redox equilibrium
      Specific Conductance (µS/cm,  25°C)  = 0
                          Density (g/cm³)  =   0.99706
                               Volume (L)  =   1.00297
                        Activity of water  =   1.000
                 Ionic strength (mol/kgw)  =   1.000e-02
                       Mass of water (kg)  =   1.000e+00
                 Total alkalinity (eq/kg)  =   2.873e-19
                         Temperature (°C)  =  25.00
                  Electrical balance (eq)  =  -2.873e-19
 Percent error, 100*(Cat-|An|)/(Cat+|An|)  =  -0.00
                               Iterations  =   0
                                  Total H  = 1.110124e+02
                                  Total O  = 5.550622e+01

----------------------------Distribution of species----------------------------

                                               Log       Log       Log    mole V
   Species          Molality    Activity  Molality  Activity     Gamma   cm³/mol

   OH-             1.109e-07   9.985e-08    -6.955    -7.001    -0.046     -4.03
   H+              1.109e-07   1.013e-07    -6.955    -6.994    -0.039      0.00
   H2O             5.551e+01   9.997e-01     1.744    -0.000     0.000     18.07
C_i           1.000e-02
   C_i+            1.000e-02   9.019e-03    -2.000    -2.045    -0.045     (0)  
D_i           1.000e-02
   D_i-            1.000e-02   9.019e-03    -2.000    -2.045    -0.045     (0)  
H(0)          1.450e-25
   H2              7.252e-26   7.269e-26   -25.140   -25.139     0.001     28.61
O(0)          0.000e+00
   O2              0.000e+00   0.000e+00   -42.104   -42.103     0.001     30.40

------------------------------Saturation indices-------------------------------

  Phase               SI** log IAP   log K(298 K,   1 atm)

  H2(g)           -22.04    -25.14   -3.10  H2
  H2O(g)           -1.50     -0.00    1.50  H2O
  O2(g)           -39.21    -42.10   -2.89  O2

**For a gas, SI = log10(fugacity). Fugacity = pressure * phi / 1 atm.
  For ideal gases, phi = 1.

Using solution 20.	

-----------------------------Solution composition------------------------------

	Elements           Molality       Moles

	C_i               1.000e-02   1.000e-02
	D_i               1.000e-02   1.000e-02

----------------------------Description of solution----------------------------

                                       pH  =   6.994      Charge balance
                                       pe  =   4.000      Adjusted to redox equilibrium
      Specific Conductance (µS/cm,  25°C)  = 0
                          Density (g/cm³)  =   0.99706
                               Volume (L)  =   1.00297
                        Activity of water  =   1.000
                 Ionic strength (mol/kgw)  =   1.000e-02
                       Mass of water (kg)  =   1.000e+00
                 Total alkalinity (eq/kg)  =   2.873e-19
                         Temperature (°C)  =  25.00
                  Electrical balance (eq)  =  -2.873e-19
 Percent error, 100*(Cat-|An|)/(Cat+|An|)  =  -0.00
                               Iterations  =   0
                                  Total H  = 1.110124e+02
                                  Total O  = 5.550622e+01

----------------------------Distribution of species----------------------------

                                               Log       Log       Log    mole V
   Species          Molality    Activity  Molality  Activity     Gamma   cm³/mol

   OH-             1.109e-07   9.985e-08    -6.955    -7.001    -0.046     -4.03
   H+              1.109e-07   1.013e-07    -6.955    -6.994    -0.039      0.00
   H2O             5.551e+01   9.997e-01     1.744    -0.000     0.000     18.07
C_i           1.000e-02
   C_i+            1.000e-02   9.019e-03    -2.000    -2.045    -0.045     (0)  
D_i           1.000e-02
   D_i-            1.000e-02   9.019e-03    -2.000    -2.045    -0.045     (0)  
H(0)          1.450e-25
   H2              7.252e-26   7.269e-26   -25.140   -25.139     0.001     28.61
O(0)          0.000e+00
   O2              0.000e+00   0.000e+00   -42.104   -42.103     0.001     30.40

------------------------------Saturation indices-------------------------------

  Phase               SI** log IAP   log K(298 K,   1 atm)

  H2(g)           -22.04    -25.14   -3.10  H2
  H2O(g)           -1.50     -0.00    1.50  H2O
  O2(g)           -39.21    -42.10   -2.89  O2

**For a gas, SI = log10(fugacity). Fugacity = pressure * phi / 1 atm.
  For ideal gases, phi = 1.

Using solution 21.	

-----------------------------Solution composition------------------------------

	Elements           Molality       Moles

	C_i               1.000e-02   1.000e-02
	D_i               1.000e-02   1.000e-02

----------------------------Description of solution----------------------------

                                       pH  =   6.994      Charge balance
                                       pe  =   4.000      Adjusted to redox equilibrium
      Specific Conductance (µS/cm,  25°C)  = 0
                          Density (g/cm³)  =   0.99706
                               Volume (L)  =   1.00297
                        Activity of water  =   1.000
                 Ionic strength (mol/kgw)  =   1.000e-02
                       Mass of water (kg)  =   1.000e+00
                 Total alkalinity (eq/kg)  =   2.873e-19
                         Temperature (°C)  =  25.00
                  Electrical balance (eq)  =  -2.873e-19
 Percent error, 100*(Cat-|An|)/(Cat+|An|)  =  -0.00
                               Iterations  =   0
                                  Total H  = 1.110124e+02
                                  Total O  = 5.550622e+01

----------------------------Distribution of species----------------------------

                                               Log       Log       Log    mole V
   Species          Molality    Activity  Molality  Activity     Gamma   cm³/mol

   OH-             1.109e-07   9.985e-08    -6.955    -7.001    -0.046     -4.03
   H+              1.109e-07   1.013e-07    -6.955    -6.994    -0.039      0.00
   H2O             5.551e+01   9.997e-01     1.744    -0.000     0.000     18.07
C_i           1.000e-02
   C_i+            1.000e-02   9.019e-03    -2.000    -2.045    -0.045     (0)  
D_i           1.000e-02
   D_i-            1.000e-02   9.019e-03    -2.000    -2.045    -0.045     (0)  
H(0)          1.450e-25
   H2              7.252e-26   7.269e-26   -25.140   -25.139     0.001     28.61
O(0)          0.000e+00
   O2              0.000e+00   0.000e+00   -42.104   -42.103     0.001     30.40

------------------------------Saturation indices-------------------------------

  Phase               SI** log IAP   log K(298 K,   1 atm)

  H2(g)           -22.04    -25.14   -3.10  H2
  H2O(g)           -1.50     -0.00    1.50  H2O
  O2(g)           -39.21    -42.10   -2.89  O2

**For a gas, SI = log10(fugacity). Fugacity = pressure * phi / 1 atm.
  For ideal gases, phi = 1.

Using solution 22.	

-----------------------------Solution composition------------------------------

	Elements           Molality       Moles

	C_i               1.000e-02   1.000e-02
	D_i               1.000e-02   1.000e-02

----------------------------Description of solution----------------------------

                                       pH  =   6.994      Charge balance
                                       pe  =   4.000      Adjusted to redox equilibrium
      Specific Conductance (µS/cm,  25°C)  = 0
                          Density (g/cm³)  =   0.99706
                               Volume (L)  =   1.00297
                        Activity of water  =   1.000
                 Ionic strength (mol/kgw)  =   1.000e-02
                       Mass of water (kg)  =   1.000e+00
                 Total alkalinity (eq/kg)  =   2.873e-19
                         Temperature (°C)  =  25.00
                  Electrical balance (eq)  =  -2.873e-19
 Percent error, 100*(Cat-|An|)/(Cat+|An|)  =  -0.00
                               Iterations  =   0
                                  Total H  = 1.110124e+02
                                  Total O  = 5.550622e+01

----------------------------Distribution of species----------------------------

                                               Log       Log       Log    mole V
   Species          Molality    Activity  Molality  Activity     Gamma   cm³/mol

   OH-             1.109e-07   9.985e-08    -6.955    -7.001    -0.046     -4.03
   H+              1.109e-07   1.013e-07    -6.955    -6.994    -0.039      0.00
   H2O             5.551e+01   9.997e-01     1.744    -0.000     0.000     18.07
C_i           1.000e-02
   C_i+            1.000e-02   9.019e-03    -2.000    -2.045    -0.045     (0)  
D_i           1.000e-02
   D_i-            1.000e-02   9.019e-03    -2.000    -2.045    -0.045     (0)  
H(0)          1.450e-25
   H2              7.252e-26   7.269e-26   -25.140   -25.139     0.001     28.61
O(0)          0.000e+00
   O2              0.000e+00   0.000e+00   -42.104   -42.103     0.001     30.40

------------------------------Saturation indices-------------------------------

  Phase               SI** log IAP   log K(298 K,   1 atm)

  H2(g)           -22.04    -25.14   -3.10  H2
  H2O(g)           -1.50     -0.00    1.50  H2O
  O2(g)           -39.21    -42.10   -2.89  O2

**For a gas, SI = log10(fugacity). Fugacity = pressure * phi / 1 atm.
  For ideal gases, phi = 1.

Using solution 23.	

-----------------------------Solution composition------------------------------

	Elements           Molality       Moles

	C_i               1.000e-02   1.000e-02
	D_i               1.000e-02   1.000e-02

----------------------------Description of solution----------------------------

                                       pH  =   6.994      Charge balance
                                       pe  =   4.000      Adjusted to redox equilibrium
      Specific Conductance (µS/cm,  25°C)  = 0
                          Density (g/cm³)  =   0.99706
                               Volume (L)  =   1.00297
                        Activity of water  =   1.000
                 Ionic strength (mol/kgw)  =   1.000e-02
                       Mass of water (kg)  =   1.000e+00
                 Total alkalinity (eq/kg)  =   2.873e-19
                         Temperature (°C)  =  25.00
                  Electrical balance (eq)  =  -2.873e-19
 Percent error, 100*(Cat-|An|)/(Cat+|An|)  =  -0.00
                               Iterations  =   0
                                  Total H  = 1.110124e+02
                                  Total O  = 5.550622e+01

----------------------------Distribution of species----------------------------

                                               Log       Log       Log    mole V
   Species          Molality    Activity  Molality  Activity     Gamma   cm³/mol

   OH-             1.109e-07   9.985e-08    -6.955    -7.001    -0.046     -4.03
   H+              1.109e-07   1.013e-07    -6.955    -6.994    -0.039      0.00
   H2O             5.551e+01   9.997e-01     1.744    -0.000     0.000     18.07
C_i           1.000e-02
   C_i+            1.000e-02   9.019e-03    -2.000    -2.045    -0.045     (0)  
D_i           1.000e-02
   D_i-            1.000e-02   9.019e-03    -2.000    -2.045    -0.045     (0)  
H(0)          1.450e-25
   H2              7.252e-26   7.269e-26   -25.140   -25.139     0.001     28.61
O(0)          0.000e+00
   O2              0.000e+00   0.000e+00   -42.104   -42.103     0.001     30.40

------------------------------Saturation indices-------------------------------

  Phase               SI** log IAP   log K(298 K,   1 atm)

  H2(g)           -22.04    -25.14   -3.10  H2
  H2O(g)           -1.50     -0.00    1.50  H2O
  O2(g)           -39.21    -42.10   -2.89  O2

**For a gas, SI = log10(fugacity). Fugacity = pressure * phi / 1 atm.
  For ideal gases, phi = 1.

Using solution 24.	

-----------------------------Solution composition------------------------------

	Elements           Molality       Moles

	C_i               1.000e-02   1.000e-02
	D_i               1.000e-02   1.000e-02

----------------------------Description of solution----------------------------

                                       pH  =   6.994      Charge balance
                                       pe  =   4.000      Adjusted to redox equilibrium
      Specific Conductance (µS/cm,  25°C)  = 0
                          Density (g/cm³)  =   0.99706
                               Volume (L)  =   1.00297
                        Activity of water  =   1.000
                 Ionic strength (mol/kgw)  =   1.000e-02
                       Mass of water (kg)  =   1.000e+00
                 Total alkalinity (eq/kg)  =   2.873e-19
                         Temperature (°C)  =  25.00
                  Electrical balance (eq)  =  -2.873e-19
 Percent error, 100*(Cat-|An|)/(Cat+|An|)  =  -0.00
                               Iterations  =   0
                                  Total H  = 1.110124e+02
                                  Total O  = 5.550622e+01

----------------------------Distribution of species----------------------------

                                               Log       Log       Log    mole V
   Species          Molality    Activity  Molality  Activity     Gamma   cm³/mol

   OH-             1.109e-07   9.985e-08    -6.955    -7.001    -0.046     -4.03
   H+              1.109e-07   1.013e-07    -6.955    -6.994    -0.039      0.00
   H2O             5.551e+01   9.997e-01     1.744    -0.000     0.000     18.07
C_i           1.000e-02
   C_i+            1.000e-02   9.019e-03    -2.000    -2.045    -0.045     (0)  
D_i           1.000e-02
   D_i-            1.000e-02   9.019e-03    -2.000    -2.045    -0.045     (0)  
H(0)          1.450e-25
   H2              7.252e-26   7.269e-26   -25.140   -25.139     0.001     28.61
O(0)          0.000e+00
   O2              0.000e+00   0.000e+00   -42.104   -42.103     0.001     30.40

------------------------------Saturation indices-------------------------------

  Phase               SI** log IAP   log K(298 K,   1 atm)

  H2(g)           -22.04    -25.14   -3.10  H2
  H2O(g)           -1.50     -0.00    1.50  H2O
  O2(g)           -39.21    -42.10   -2.89  O2

**For a gas, SI = log10(fugacity). Fugacity = pressure * phi / 1 atm.
  For ideal gases, phi = 1.

Using solution 25.	

-----------------------------Solution composition------------------------------

	Elements           Molality       Moles

	C_i               1.000e-02   1.000e-02
	D_i               1.000e-02   1.000e-02

----------------------------Description of solution----------------------------

                                       pH  =   6.994      Charge balance
                                       pe  =   4.000      Adjusted to redox equilibrium
      Specific Conductance (µS/cm,  25°C)  = 0
                          Density (g/cm³)  =   0.99706
                               Volume (L)  =   1.00297
                        Activity of water  =   1.000
                 Ionic strength (mol/kgw)  =   1.000e-02
                       Mass of water (kg)  =   1.000e+00
                 Total alkalinity (eq/kg)  =   2.873e-19
                         Temperature (°C)  =  25.00
                  Electrical balance (eq)  =  -2.873e-19
 Percent error, 100*(Cat-|An|)/(Cat+|An|)  =  -0.00
                               Iterations  =   0
                                  Total H  = 1.110124e+02
                                  Total O  = 5.550622e+01

----------------------------Distribution of species----------------------------

                                               Log       Log       Log    mole V
   Species          Molality    Activity  Molality  Activity     Gamma   cm³/mol

   OH-             1.109e-07   9.985e-08    -6.955    -7.001    -0.046     -4.03
   H+              1.109e-07   1.013e-07    -6.955    -6.994    -0.039      0.00
   H2O             5.551e+01   9.997e-01     1.744    -0.000     0.000     18.07
C_i           1.000e-02
   C_i+            1.000e-02   9.019e-03    -2.000    -2.045    -0.045     (0)  
D_i           1.000e-02
   D_i-            1.000e-02   9.019e-03    -2.000    -2.045    -0.045     (0)  
H(0)          1.450e-25
   H2              7.252e-26   7.269e-26   -25.140   -25.139     0.001     28.61
O(0)          0.000e+00
   O2              0.000e+00   0.000e+00   -42.104   -42.103     0.001     30.40

------------------------------Saturation indices-------------------------------

  Phase               SI** log IAP   log K(298 K,   1 atm)

  H2(g)           -22.04    -25.14   -3.10  H2
  H2O(g)           -1.50     -0.00    1.50  H2O
  O2(g)           -39.21    -42.10   -2.89  O2

**For a gas, SI = log10(fugacity). Fugacity = pressure * phi / 1 atm.
  For ideal gases, phi = 1.

Using solution 26.	

-----------------------------Solution composition------------------------------

	Elements           Molality       Moles

	C_i               1.000e-02   1.000e-02
	D_i               1.000e-02   1.000e-02

----------------------------Description of solution----------------------------

                                       pH  =   6.994      Charge balance
                                       pe  =   4.000      Adjusted to redox equilibrium
      Specific Conductance (µS/cm,  25°C)  = 0
                          Density (g/cm³)  =   0.99706
                               Volume (L)  =   1.00297
                        Activity of water  =   1.000
                 Ionic strength (mol/kgw)  =   1.000e-02
                       Mass of water (kg)  =   1.000e+00
                 Total alkalinity (eq/kg)  =   2.873e-19
                         Temperature (°C)  =  25.00
                  Electrical balance (eq)  =  -2.873e-19
 Percent error, 100*(Cat-|An|)/(Cat+|An|)  =  -0.00
                               Iterations  =   0
                                  Total H  = 1.110124e+02
                                  Total O  = 5.550622e+01

----------------------------Distribution of species----------------------------

                                               Log       Log       Log    mole V
   Species          Molality    Activity  Molality  Activity     Gamma   cm³/mol

   OH-             1.109e-07   9.985e-08    -6.955    -7.001    -0.046     -4.03
   H+              1.109e-07   1.013e-07    -6.955    -6.994    -0.039      0.00
   H2O             5.551e+01   9.997e-01     1.744    -0.000     0.000     18.07
C_i           1.000e-02
   C_i+            1.000e-02   9.019e-03    -2.000    -2.045    -0.045     (0)  
D_i           1.000e-02
   D_i-            1.000e-02   9.019e-03    -2.000    -2.045    -0.045     (0)  
H(0)          1.450e-25
   H2              7.252e-26   7.269e-26   -25.140   -25.139     0.001     28.61
O(0)          0.000e+00
   O2              0.000e+00   0.000e+00   -42.104   -42.103     0.001     30.40

------------------------------Saturation indices-------------------------------

  Phase               SI** log IAP   log K(298 K,   1 atm)

  H2(g)           -22.04    -25.14   -3.10  H2
  H2O(g)           -1.50     -0.00    1.50  H2O
  O2(g)           -39.21    -42.10   -2.89  O2

**For a gas, SI = log10(fugacity). Fugacity = pressure * phi / 1 atm.
  For ideal gases, phi = 1.

Using solution 27.	

-----------------------------Solution composition------------------------------

	Elements           Molality       Moles

	C_i               1.000e-02   1.000e-02
	D_i               1.000e-02   1.000e-02

----------------------------Description of solution----------------------------

                                       pH  =   6.994      Charge balance
                                       pe  =   4.000      Adjusted to redox equilibrium
      Specific Conductance (µS/cm,  25°C)  = 0
                          Density (g/cm³)  =   0.99706
                               Volume (L)  =   1.00297
                        Activity of water  =   1.000
                 Ionic strength (mol/kgw)  =   1.000e-02
                       Mass of water (kg)  =   1.000e+00
                 Total alkalinity (eq/kg)  =   2.873e-19
                         Temperature (°C)  =  25.00
                  Electrical balance (eq)  =  -2.873e-19
 Percent error, 100*(Cat-|An|)/(Cat+|An|)  =  -0.00
                               Iterations  =   0
                                  Total H  = 1.110124e+02
                                  Total O  = 5.550622e+01

----------------------------Distribution of species----------------------------

                                               Log       Log       Log    mole V
   Species          Molality    Activity  Molality  Activity     Gamma   cm³/mol

   OH-             1.109e-07   9.985e-08    -6.955    -7.001    -0.046     -4.03
   H+              1.109e-07   1.013e-07    -6.955    -6.994    -0.039      0.00
   H2O             5.551e+01   9.997e-01     1.744    -0.000     0.000     18.07
C_i           1.000e-02
   C_i+            1.000e-02   9.019e-03    -2.000    -2.045    -0.045     (0)  
D_i           1.000e-02
   D_i-            1.000e-02   9.019e-03    -2.000    -2.045    -0.045     (0)  
H(0)          1.450e-25
   H2              7.252e-26   7.269e-26   -25.140   -25.139     0.001     28.61
O(0)          0.000e+00
   O2              0.000e+00   0.000e+00   -42.104   -42.103     0.001     30.40

------------------------------Saturation indices-------------------------------

  Phase               SI** log IAP   log K(298 K,   1 atm)

  H2(g)           -22.04    -25.14   -3.10  H2
  H2O(g)           -1.50     -0.00    1.50  H2O
  O2(g)           -39.21    -42.10   -2.89  O2

**For a gas, SI = log10(fugacity). Fugacity = pressure * phi / 1 atm.
  For ideal gases, phi = 1.

Using solution 28.	

-----------------------------Solution composition------------------------------

	Elements           Molality       Moles

	C_i               1.000e-02   1.000e-02
	D_i               1.000e-02   1.000e-02

----------------------------Description of solution----------------------------

                                       pH  =   6.994      Charge balance
                                       pe  =   4.000      Adjusted to redox equilibrium
      Specific Conductance (µS/cm,  25°C)  = 0
                          Density (g/cm³)  =   0.99706
[...]
O(0)          0.000e+00
   O2              0.000e+00   0.000e+00   -42.104   -42.103     0.001     30.40

------------------------------Saturation indices-------------------------------

  Phase               SI** log IAP   log K(298 K,   1 atm)

  H2(g)           -22.04    -25.14   -3.10  H2
  H2O(g)           -1.50     -0.00    1.50  H2O
  O2(g)           -39.21    -42.10   -2.89  O2

**For a gas, SI = log10(fugacity). Fugacity = pressure * phi / 1 atm.
  For ideal gases, phi = 1.

Using mix 95.	

Mixture 95.	

	  0.000e+00 Solution 94	Solution after simulation 4.                           
	  1.000e+00 Solution 95	Solution after simulation 4.                           
	  0.000e+00 Solution 96	Solution after simulation 4.                           

-----------------------------Solution composition------------------------------

	Elements           Molality       Moles

	C_i               1.000e-02   1.000e-02
	D_i               1.000e-02   1.000e-02

----------------------------Description of solution----------------------------

                                       pH  =   6.994      Charge balance
                                       pe  =   4.000      Adjusted to redox equilibrium
      Specific Conductance (µS/cm,  25°C)  = 0
                          Density (g/cm³)  =   0.99706
                               Volume (L)  =   1.00297
                        Activity of water  =   1.000
                 Ionic strength (mol/kgw)  =   1.000e-02
                       Mass of water (kg)  =   1.000e+00
                 Total alkalinity (eq/kg)  =   1.873e-18
                         Temperature (°C)  =  25.00
              Electrical Potential (Volt)  = -766.93
                  Electrical balance (eq)  =  -1.873e-18
 Percent error, 100*(Cat-|An|)/(Cat+|An|)  =  -0.00
                               Iterations  =   0
                                  Total H  = 1.110124e+02
                                  Total O  = 5.550622e+01

----------------------------Distribution of species----------------------------

                                               Log       Log       Log    mole V
   Species          Molality    Activity  Molality  Activity     Gamma   cm³/mol

   OH-             1.109e-07   9.985e-08    -6.955    -7.001    -0.046     -4.03
   H+              1.109e-07   1.013e-07    -6.955    -6.994    -0.039      0.00
   H2O             5.551e+01   9.997e-01     1.744    -0.000     0.000     18.07
C_i           1.000e-02
   C_i+            1.000e-02   9.019e-03    -2.000    -2.045    -0.045     (0)  
D_i           1.000e-02
   D_i-            1.000e-02   9.019e-03    -2.000    -2.045    -0.045     (0)  
H(0)          1.450e-25
   H2              7.252e-26   7.269e-26   -25.140   -25.139     0.001     28.61
O(0)          0.000e+00
   O2              0.000e+00   0.000e+00   -42.104   -42.103     0.001     30.40

------------------------------Saturation indices-------------------------------

  Phase               SI** log IAP   log K(298 K,   1 atm)

  H2(g)           -22.04    -25.14   -3.10  H2
  H2O(g)           -1.50     -0.00    1.50  H2O
  O2(g)           -39.21    -42.10   -2.89  O2

**For a gas, SI = log10(fugacity). Fugacity = pressure * phi / 1 atm.
  For ideal gases, phi = 1.

Using mix 96.	

Mixture 96.	

	  0.000e+00 Solution 95	Solution after simulation 4.                           
	  1.000e+00 Solution 96	Solution after simulation 4.                           
	  0.000e+00 Solution 97	Solution after simulation 4.                           

-----------------------------Solution composition------------------------------

	Elements           Molality       Moles

	C_i               1.000e-02   1.000e-02
	D_i               1.000e-02   1.000e-02

----------------------------Description of solution----------------------------

                                       pH  =   6.994      Charge balance
                                       pe  =   4.000      Adjusted to redox equilibrium
      Specific Conductance (µS/cm,  25°C)  = 0
                          Density (g/cm³)  =   0.99706
                               Volume (L)  =   1.00297
                        Activity of water  =   1.000
                 Ionic strength (mol/kgw)  =   1.000e-02
                       Mass of water (kg)  =   1.000e+00
                 Total alkalinity (eq/kg)  =   1.873e-18
                         Temperature (°C)  =  25.00
              Electrical Potential (Volt)  = -775.05
                  Electrical balance (eq)  =  -1.873e-18
 Percent error, 100*(Cat-|An|)/(Cat+|An|)  =  -0.00
                               Iterations  =   0
                                  Total H  = 1.110124e+02
                                  Total O  = 5.550622e+01

----------------------------Distribution of species----------------------------

                                               Log       Log       Log    mole V
   Species          Molality    Activity  Molality  Activity     Gamma   cm³/mol

   OH-             1.109e-07   9.985e-08    -6.955    -7.001    -0.046     -4.03
   H+              1.109e-07   1.013e-07    -6.955    -6.994    -0.039      0.00
   H2O             5.551e+01   9.997e-01     1.744    -0.000     0.000     18.07
C_i           1.000e-02
   C_i+            1.000e-02   9.019e-03    -2.000    -2.045    -0.045     (0)  
D_i           1.000e-02
   D_i-            1.000e-02   9.019e-03    -2.000    -2.045    -0.045     (0)  
H(0)          1.450e-25
   H2              7.252e-26   7.269e-26   -25.140   -25.139     0.001     28.61
O(0)          0.000e+00
   O2              0.000e+00   0.000e+00   -42.104   -42.103     0.001     30.40

------------------------------Saturation indices-------------------------------

  Phase               SI** log IAP   log K(298 K,   1 atm)

  H2(g)           -22.04    -25.14   -3.10  H2
  H2O(g)           -1.50     -0.00    1.50  H2O
  O2(g)           -39.21    -42.10   -2.89  O2

**For a gas, SI = log10(fugacity). Fugacity = pressure * phi / 1 atm.
  For ideal gases, phi = 1.

Using mix 97.	

Mixture 97.	

	  0.000e+00 Solution 96	Solution after simulation 4.                           
	  1.000e+00 Solution 97	Solution after simulation 4.                           
	  0.000e+00 Solution 98	Solution after simulation 4.                           

-----------------------------Solution composition------------------------------

	Elements           Molality       Moles

	C_i               1.000e-02   1.000e-02
	D_i               1.000e-02   1.000e-02

----------------------------Description of solution----------------------------

                                       pH  =   6.994      Charge balance
                                       pe  =   4.000      Adjusted to redox equilibrium
      Specific Conductance (µS/cm,  25°C)  = 0
                          Density (g/cm³)  =   0.99706
                               Volume (L)  =   1.00297
                        Activity of water  =   1.000
                 Ionic strength (mol/kgw)  =   1.000e-02
                       Mass of water (kg)  =   1.000e+00
                 Total alkalinity (eq/kg)  =   1.873e-18
                         Temperature (°C)  =  25.00
              Electrical Potential (Volt)  = -783.16
                  Electrical balance (eq)  =  -1.873e-18
 Percent error, 100*(Cat-|An|)/(Cat+|An|)  =  -0.00
                               Iterations  =   0
                                  Total H  = 1.110124e+02
                                  Total O  = 5.550622e+01

----------------------------Distribution of species----------------------------

                                               Log       Log       Log    mole V
   Species          Molality    Activity  Molality  Activity     Gamma   cm³/mol

   OH-             1.109e-07   9.985e-08    -6.955    -7.001    -0.046     -4.03
   H+              1.109e-07   1.013e-07    -6.955    -6.994    -0.039      0.00
   H2O             5.551e+01   9.997e-01     1.744    -0.000     0.000     18.07
C_i           1.000e-02
   C_i+            1.000e-02   9.019e-03    -2.000    -2.045    -0.045     (0)  
D_i           1.000e-02
   D_i-            1.000e-02   9.019e-03    -2.000    -2.045    -0.045     (0)  
H(0)          1.450e-25
   H2              7.252e-26   7.269e-26   -25.140   -25.139     0.001     28.61
O(0)          0.000e+00
   O2              0.000e+00   0.000e+00   -42.104   -42.103     0.001     30.40

------------------------------Saturation indices-------------------------------

  Phase               SI** log IAP   log K(298 K,   1 atm)

  H2(g)           -22.04    -25.14   -3.10  H2
  H2O(g)           -1.50     -0.00    1.50  H2O
  O2(g)           -39.21    -42.10   -2.89  O2

**For a gas, SI = log10(fugacity). Fugacity = pressure * phi / 1 atm.
  For ideal gases, phi = 1.

Using mix 98.	

Mixture 98.	

	  0.000e+00 Solution 97	Solution after simulation 4.                           
	  1.000e+00 Solution 98	Solution after simulation 4.                           
	  0.000e+00 Solution 99	Solution after simulation 4.                           

-----------------------------Solution composition------------------------------

	Elements           Molality       Moles

	C_i               1.000e-02   1.000e-02
	D_i               1.000e-02   1.000e-02

----------------------------Description of solution----------------------------

                                       pH  =   6.994      Charge balance
                                       pe  =   4.000      Adjusted to redox equilibrium
      Specific Conductance (µS/cm,  25°C)  = 0
                          Density (g/cm³)  =   0.99706
                               Volume (L)  =   1.00297
                        Activity of water  =   1.000
                 Ionic strength (mol/kgw)  =   1.000e-02
                       Mass of water (kg)  =   1.000e+00
                 Total alkalinity (eq/kg)  =   1.873e-18
                         Temperature (°C)  =  25.00
              Electrical Potential (Volt)  = -791.28
                  Electrical balance (eq)  =  -1.873e-18
 Percent error, 100*(Cat-|An|)/(Cat+|An|)  =  -0.00
                               Iterations  =   0
                                  Total H  = 1.110124e+02
                                  Total O  = 5.550622e+01

----------------------------Distribution of species----------------------------

                                               Log       Log       Log    mole V
   Species          Molality    Activity  Molality  Activity     Gamma   cm³/mol

   OH-             1.109e-07   9.985e-08    -6.955    -7.001    -0.046     -4.03
   H+              1.109e-07   1.013e-07    -6.955    -6.994    -0.039      0.00
   H2O             5.551e+01   9.997e-01     1.744    -0.000     0.000     18.07
C_i           1.000e-02
   C_i+            1.000e-02   9.019e-03    -2.000    -2.045    -0.045     (0)  
D_i           1.000e-02
   D_i-            1.000e-02   9.019e-03    -2.000    -2.045    -0.045     (0)  
H(0)          1.450e-25
   H2              7.252e-26   7.269e-26   -25.140   -25.139     0.001     28.61
O(0)          0.000e+00
   O2              0.000e+00   0.000e+00   -42.104   -42.103     0.001     30.40

------------------------------Saturation indices-------------------------------

  Phase               SI** log IAP   log K(298 K,   1 atm)

  H2(g)           -22.04    -25.14   -3.10  H2
  H2O(g)           -1.50     -0.00    1.50  H2O
  O2(g)           -39.21    -42.10   -2.89  O2

**For a gas, SI = log10(fugacity). Fugacity = pressure * phi / 1 atm.
  For ideal gases, phi = 1.

Using mix 99.	

Mixture 99.	

	  0.000e+00 Solution 98	Solution after simulation 4.                           
	  1.000e+00 Solution 99	Solution after simulation 4.                           
	  0.000e+00 Solution 100	Solution after simulation 4.                           

-----------------------------Solution composition------------------------------

	Elements           Molality       Moles

	C_i               1.000e-02   1.000e-02
	D_i               1.000e-02   1.000e-02

----------------------------Description of solution----------------------------

                                       pH  =   6.994      Charge balance
                                       pe  =   4.000      Adjusted to redox equilibrium
      Specific Conductance (µS/cm,  25°C)  = 0
                          Density (g/cm³)  =   0.99706
                               Volume (L)  =   1.00297
                        Activity of water  =   1.000
                 Ionic strength (mol/kgw)  =   1.000e-02
                       Mass of water (kg)  =   1.000e+00
                 Total alkalinity (eq/kg)  =   1.873e-18
                         Temperature (°C)  =  25.00
              Electrical Potential (Volt)  = -799.39
                  Electrical balance (eq)  =  -1.873e-18
 Percent error, 100*(Cat-|An|)/(Cat+|An|)  =  -0.00
                               Iterations  =   0
                                  Total H  = 1.110124e+02
                                  Total O  = 5.550622e+01

----------------------------Distribution of species----------------------------

                                               Log       Log       Log    mole V
   Species          Molality    Activity  Molality  Activity     Gamma   cm³/mol

   OH-             1.109e-07   9.985e-08    -6.955    -7.001    -0.046     -4.03
   H+              1.109e-07   1.013e-07    -6.955    -6.994    -0.039      0.00
   H2O             5.551e+01   9.997e-01     1.744    -0.000     0.000     18.07
C_i           1.000e-02
   C_i+            1.000e-02   9.019e-03    -2.000    -2.045    -0.045     (0)  
D_i           1.000e-02
   D_i-            1.000e-02   9.019e-03    -2.000    -2.045    -0.045     (0)  
H(0)          1.450e-25
   H2              7.252e-26   7.269e-26   -25.140   -25.139     0.001     28.61
O(0)          0.000e+00
   O2              0.000e+00   0.000e+00   -42.104   -42.103     0.001     30.40

------------------------------Saturation indices-------------------------------

  Phase               SI** log IAP   log K(298 K,   1 atm)

  H2(g)           -22.04    -25.14   -3.10  H2
  H2O(g)           -1.50     -0.00    1.50  H2O
  O2(g)           -39.21    -42.10   -2.89  O2

**For a gas, SI = log10(fugacity). Fugacity = pressure * phi / 1 atm.
  For ideal gases, phi = 1.

Using mix 100.	

Mixture 100.	

	  0.000e+00 Solution 99	Solution after simulation 4.                           
	  1.000e+00 Solution 100	Solution after simulation 4.                           
	  0.000e+00 Solution 101	Solution after simulation 4.                           

-----------------------------Solution composition------------------------------

	Elements           Molality       Moles

	C_i               1.000e-02   1.000e-02
	D_i               1.000e-02   1.000e-02

----------------------------Description of solution----------------------------

                                       pH  =   6.156      Charge balance
                                       pe  =  13.684      Adjusted to redox equilibrium
      Specific Conductance (µS/cm,  25°C)  = 0
                          Density (g/cm³)  =   0.99706
                               Volume (L)  =   1.00297
                        Activity of water  =   1.000
                 Ionic strength (mol/kgw)  =   1.000e-02
                       Mass of water (kg)  =   1.000e+00
                 Total alkalinity (eq/kg)  =  -7.483e-07
                         Temperature (°C)  =  25.00
              Electrical Potential (Volt)  = -807.51
                  Electrical balance (eq)  =   7.333e-12
 Percent error, 100*(Cat-|An|)/(Cat+|An|)  =   0.00
                               Iterations  =   3
                                  Total H  = 1.110124e+02
                                  Total O  = 5.550622e+01

----------------------------Distribution of species----------------------------

                                               Log       Log       Log    mole V
   Species          Molality    Activity  Molality  Activity     Gamma   cm³/mol

   H+              7.644e-07   6.982e-07    -6.117    -6.156    -0.039      0.00
   OH-             1.610e-08   1.449e-08    -7.793    -7.839    -0.046     -4.03
   H2O             5.551e+01   9.997e-01     1.744    -0.000     0.000     18.07
C_i           1.000e-02
   C_i+            1.000e-02   9.019e-03    -2.000    -2.045    -0.045     (0)  
D_i           1.000e-02
   D_i-            1.000e-02   9.019e-03    -2.000    -2.045    -0.045     (0)  
H(0)          0.000e+00
   H2              0.000e+00   0.000e+00   -42.832   -42.831     0.001     28.61
O(0)          3.814e-07
   O2              1.907e-07   1.911e-07    -6.720    -6.719     0.001     30.40

------------------------------Saturation indices-------------------------------

  Phase               SI** log IAP   log K(298 K,   1 atm)

  H2(g)           -39.73    -42.83   -3.10  H2
  H2O(g)           -1.50     -0.00    1.50  H2O
  O2(g)            -3.83     -6.72   -2.89  O2

**For a gas, SI = log10(fugacity). Fugacity = pressure * phi / 1 atm.
  For ideal gases, phi = 1.

Using solution 101.	Solution after simulation 4.

-----------------------------Solution composition------------------------------

	Elements           Molality       Moles

	C_i               1.003e-02   1.003e-02
	D_i               9.969e-03   9.969e-03

----------------------------Description of solution----------------------------

                                       pH  =   9.743      Charge balance
                                       pe  =  -9.064      Adjusted to redox equilibrium
      Specific Conductance (µS/cm,  25°C)  = 11
                          Density (g/cm³)  =   0.99706
                               Volume (L)  =   1.00297
                        Activity of water  =   1.000
                 Ionic strength (mol/kgw)  =   1.003e-02
                       Mass of water (kg)  =   1.000e+00
                 Total alkalinity (eq/kg)  =   6.215e-05
                         Temperature (°C)  =  25.00
              Electrical Potential (Volt)  = 100.00
                  Electrical balance (eq)  =  -6.362e-11
 Percent error, 100*(Cat-|An|)/(Cat+|An|)  =  -0.00
                               Iterations  =   3
                                  Total H  = 1.110124e+02
                                  Total O  = 5.550622e+01

----------------------------Distribution of species----------------------------

                                               Log       Log       Log    mole V
   Species          Molality    Activity  Molality  Activity     Gamma   cm³/mol

   OH-             6.215e-05   5.593e-05    -4.207    -4.252    -0.046     -4.03
   H+              1.981e-10   1.809e-10    -9.703    -9.743    -0.039      0.00
   H2O             5.551e+01   9.997e-01     1.744    -0.000     0.000     18.07
C_i           1.003e-02
   C_i+            1.003e-02   9.046e-03    -1.999    -2.044    -0.045     (0)  
D_i           9.969e-03
   D_i-            9.969e-03   8.990e-03    -2.001    -2.046    -0.045     (0)  
H(0)          6.219e-05
   H2              3.109e-05   3.117e-05    -4.507    -4.506     0.001     28.61
O(0)          0.000e+00
   O2              0.000e+00   0.000e+00   -83.369   -83.368     0.001     30.40

------------------------------Saturation indices-------------------------------

  Phase               SI** log IAP   log K(298 K,   1 atm)

  H2(g)            -1.41     -4.51   -3.10  H2
  H2O(g)           -1.50     -0.00    1.50  H2O
  O2(g)           -80.48    -83.37   -2.89  O2

**For a gas, SI = log10(fugacity). Fugacity = pressure * phi / 1 atm.
  For ideal gases, phi = 1.

------------------
End of simulation.
------------------

------------------------------------
Reading input data for simulation 5.
------------------------------------

-------------------------------
End of Run after 0.572 Seconds.
-------------------------------

