   Input file: Kinetics_Variations_coupled.phr
  Output file: Kinetics_Variations_coupled.phr.out
Using PHREEQC: version 3.6.0, compiled December 2, 2019
Database file: C:\phreeqc\database\WATEQ4F.dat

------------------
Reading data base.
------------------

	SOLUTION_MASTER_SPECIES
	SOLUTION_SPECIES
	PHASES
	EXCHANGE_MASTER_SPECIES
	EXCHANGE_SPECIES
	SURFACE_MASTER_SPECIES
	SURFACE_SPECIES
	RATES
	END
------------------------------------
Reading input data for simulation 1.
------------------------------------

	DATABASE C:\phreeqc\database\WATEQ4F.dat
	TITLE EK-ISL - Copper - Bottle roll experiments - Synthetic chalcpiryte and quartz 
	SOLUTION 1
		units mol/L
		temp 	25
		pH 	2  		
		Na 	100e-3 	
		Cl 	100e-3 	charge	
		Fe(2) 	0 	
		Fe(3)	1000e-3 	
		Cu(2) 	0 	
	EQUILIBRIUM_PHASES 
	Sulfur 0.0 0.0
	Pyrite 0.0 0.0
	RATES
	Chalcopyrite
	start
	1 rem assuming Fe(III)>1e-4M is the switch point for Fe-promoted mechanism
	10 R=8.31451
	20 if TOT("Fe_tri")<=1e-4 then J=(10^-1.52)*EXP(-28200/(R*TK))*ACT("H+")^1.68 else J=(10^1.88)*EXP(-48100/(R*TK))*ACT("H+")^0.8*TOT("Fe_tri")^0.42
	30 if (parm(1)>0) then SA0=parm(1) else SA0=1
	40 if (M0<=0) then SA=SA0 else SA=SA0* (M/M0)^0.67
	70 SR_mineral=SR("Chalcopyrite")
	80 if (M<0) then goto 150
	90 if (M=0 and SR_mineral<1) then goto 150
	95 k_pass = EXP(-150*EQUI("Sulfur"))
	100 rate=J*SA*(1-SR_mineral)*parm(2)*k_pass
	120 moles=rate*Time
	150 Save moles
	end 
	KINETICS 1
	Chalcopyrite ### 13
	formula  Fe+3 -4.0 Cu+2 1.0 Fe+2 5.0 Sulfur 2.0
	steps  1036800 in 200 steps
	parms 30.5 1
	m0 80.98e-3
	cvode true
	bad_step_max			5000
	cvode_steps			1000
	INCREMENTAL_REACTIONS
	USER_GRAPH 1
	-chart_title "pH"
	-plot_concentration_vs time
	-initial_solutions false
	-axis_titles "time (h)" "pH"
	-headings time pH
	-start
	10 GRAPH_X TOTAL_TIME/3600
	20 GRAPH_Y -LA("H+")
	USER_GRAPH 10
	-chart_title "Cu(II)"
	-plot_concentration_vs time
	-initial_solutions false
	-axis_titles "time (days)" "Concentrations (mmol/L)"
	-headings time Cu_two
	-start
	10 GRAPH_X TOTAL_TIME/86400
	20 GRAPH_Y mol("Cu+2")*1000
	USER_GRAPH 20
	-chart_title "Fe"
	-plot_concentration_vs time
	-initial_solutions false
	-axis_titles "time (days)" "Concentrations (mmol/L)"
	-headings time Fe3 Fe2
	-start
	10 GRAPH_X TOTAL_TIME/86400
	20 GRAPH_Y tot("Fe(3)")*1000
	30 GRAPH_Y tot("Fe(2)")*1000
	USER_GRAPH 30
	-chart_title "Minerals"
	-plot_concentration_vs time
	-initial_solutions false
	-axis_titles "time (days)" "Concentrations (mmol/L)"
	-headings time Chalcopyrite Chalcocite Primcovellite Seccovellite
	-start
	10 GRAPH_X TOTAL_TIME/86400
	20 GRAPH_Y KIN("Chalcopyrite")*1000
	USER_GRAPH 40
	-chart_title "Sulfur Species"
	-plot_concentration_vs time
	-initial_solutions false
	-axis_titles "time (days)" "Concentrations (mmol/L)"
	-headings time Sulfur Species
	-start
	10 GRAPH_X TOTAL_TIME/86400
	20 GRAPH_Y mol("HS-")*1e3,y_axis = 2 
	30 GRAPH_Y EQUI("S")*1e3
	END
-----
TITLE
-----

 EK-ISL - Copper - Bottle roll experiments - Synthetic chalcpiryte and quartz 

-------------------------------------------
Beginning of initial solution calculations.
-------------------------------------------

Initial solution 1.	

-----------------------------Solution composition------------------------------

	Elements           Molality       Moles

	Cl                3.305e+00   3.305e+00  Charge balance
	Fe(3)             1.066e+00   1.066e+00
	Na                1.066e-01   1.066e-01

----------------------------Description of solution----------------------------

                                       pH  =   2.000    
                                       pe  =   4.000    
                        Activity of water  =   0.947
                 Ionic strength (mol/kgw)  =   2.764e+00
                       Mass of water (kg)  =   1.000e+00
                 Total alkalinity (eq/kg)  =  -2.133e+00
                         Temperature (°C)  =  25.00
                  Electrical balance (eq)  =  -2.227e-09
 Percent error, 100*(Cat-|An|)/(Cat+|An|)  =  -0.00
                               Iterations  =  10
                                  Total H  = 1.110389e+02
                                  Total O  = 5.551874e+01

----------------------------Distribution of species----------------------------

                                               Log       Log       Log    mole V
   Species          Molality    Activity  Molality  Activity     Gamma   cm³/mol

   H+              1.391e-02   1.000e-02    -1.857    -2.000    -0.143      0.00
   OH-             1.854e-12   9.479e-13   -11.732   -12.023    -0.291     (0)  
   H2O             5.551e+01   9.469e-01     1.744    -0.024     0.000     18.07
Cl            3.305e+00
   Cl-             1.939e+00   1.091e+00     0.288     0.038    -0.250     (0)  
   FeCl+2          6.667e-01   8.217e-02    -0.176    -1.085    -0.909     (0)  
   FeCl2+          3.149e-01   4.005e-01    -0.502    -0.397     0.104     (0)  
   FeCl3           2.313e-02   4.370e-02    -1.636    -1.359     0.276     (0)  
Fe(3)         1.066e+00
   FeCl+2          6.667e-01   8.217e-02    -0.176    -1.085    -0.909     (0)  
   FeCl2+          3.149e-01   4.005e-01    -0.502    -0.397     0.104     (0)  
   Fe+3            4.864e-02   2.494e-03    -1.313    -2.603    -1.290     (0)  
   FeCl3           2.313e-02   4.370e-02    -1.636    -1.359     0.276     (0)  
   FeOH+2          1.237e-02   1.525e-03    -1.908    -2.817    -0.909     (0)  
   Fe(OH)2+        7.837e-05   4.780e-05    -4.106    -4.321    -0.215     (0)  
   Fe2(OH)2+4      1.331e-06   6.255e-05    -5.876    -4.204     1.672     (0)  
   Fe3(OH)4+5      1.525e-09   6.247e-07    -8.817    -6.204     2.612     (0)  
   Fe(OH)3         3.085e-10   5.830e-10    -9.511    -9.234     0.276     (0)  
   Fe(OH)4-        8.255e-17   5.035e-17   -16.083   -16.298    -0.215     (0)  
H(0)          7.492e-16
   H2              3.746e-16   7.079e-16   -15.426   -15.150     0.276     (0)  
Na            1.066e-01
   Na+             1.066e-01   9.305e-02    -0.972    -1.031    -0.059     (0)  
O(0)          0.000e+00
   O2              0.000e+00   0.000e+00   -62.404   -62.127     0.276     (0)  

------------------------------Saturation indices-------------------------------

  Phase               SI** log IAP   log K(298 K,   1 atm)

  Fe(OH)2.7Cl.3     5.78      2.74   -3.04  Fe(OH)2.7Cl0.3
  Fe(OH)3(a)       -1.57      3.33    4.89  Fe(OH)3
  Goethite          4.35      3.35   -1.00  FeOOH
  H2(g)           -12.00    -15.15   -3.15  H2
  H2O(g)           -1.53     -0.02    1.51  H2O
  Halite           -2.58     -0.99    1.58  NaCl
  Hematite         10.73      6.72   -4.01  Fe2O3
  Maghemite         0.34      6.72    6.39  Fe2O3
  O2(g)           -59.24    -62.13   -2.89  O2

**For a gas, SI = log10(fugacity). Fugacity = pressure * phi / 1 atm.
  For ideal gases, phi = 1.

-----------------------------------------
Beginning of batch-reaction calculations.
-----------------------------------------

Reaction step 1.

WARNING: Element S is contained in Pyrite (which has 0.0 mass),	
but is not in solution or other phases.
WARNING: Element S is contained in Sulfur (which has 0.0 mass),	
but is not in solution or other phases.
WARNING: Element S is contained in Pyrite (which has 0.0 mass),	
but is not in solution or other phases.
WARNING: Element S is contained in Sulfur (which has 0.0 mass),	
but is not in solution or other phases.
WARNING: Maximum iterations exceeded, 100

WARNING: Numerical method failed with this set of convergence parameters.

WARNING: Trying smaller step size, pe step size 10, 5 ... 

WARNING: Maximum iterations exceeded, 200

WARNING: Numerical method failed with this set of convergence parameters.

WARNING: Trying reduced tolerance 1e-14 ...

Using solution 1.	
Using pure phase assemblage 1.	
Using kinetics 1.	

Kinetics 1.	

	Time step: 5184 seconds  (Incremented time: 5184 seconds)

	Rate name       Delta Moles Total Moles   Reactant        Coefficient

	Chalcopyrite     -2.420e-05   8.096e-02   Cu+2                      1
	                                          Fe+2                      5
	                                          Fe+3                     -4
	                                          Sulfur                    2

-------------------------------Phase assemblage--------------------------------

                                                      Moles in assemblage
Phase               SI  log IAP  log K(T, P)   Initial       Final       Delta

Pyrite         -168.75  -187.23    -18.48    0.000e+00           0   0.000e+00
Sulfur          -74.60   -89.63    -15.03    0.000e+00           0   0.000e+00

-----------------------------Solution composition------------------------------

	Elements           Molality       Moles

	Cl                3.305e+00   3.305e+00
	Cu                2.420e-05   2.420e-05
	Fe                1.066e+00   1.066e+00
	Na                1.066e-01   1.066e-01
	S                 4.841e-05   4.841e-05

----------------------------Description of solution----------------------------

                                       pH  =   1.994      Charge balance
                                       pe  =  14.744      Adjusted to redox equilibrium
                        Activity of water  =   0.947
                 Ionic strength (mol/kgw)  =   2.765e+00
                       Mass of water (kg)  =   1.000e+00
                 Total alkalinity (eq/kg)  =  -2.133e+00
                         Temperature (°C)  =  25.00
                  Electrical balance (eq)  =  -2.463e-09
 Percent error, 100*(Cat-|An|)/(Cat+|An|)  =  -0.00
                               Iterations  = 177 (729 overall)
                                  Total H  = 1.110389e+02
                                  Total O  = 5.551874e+01

----------------------------Distribution of species----------------------------

                                               Log       Log       Log    mole V
   Species          Molality    Activity  Molality  Activity     Gamma   cm³/mol

   H+              1.411e-02   1.014e-02    -1.850    -1.994    -0.143      0.00
   OH-             1.827e-12   9.344e-13   -11.738   -12.029    -0.291     (0)  
   H2O             5.551e+01   9.469e-01     1.744    -0.024     0.000     18.07
Cl            3.305e+00
   Cl-             1.940e+00   1.091e+00     0.288     0.038    -0.250     (0)  
   FeCl+2          6.665e-01   8.215e-02    -0.176    -1.085    -0.909     (0)  
   FeCl2+          3.148e-01   4.005e-01    -0.502    -0.397     0.105     (0)  
   FeCl3           2.312e-02   4.370e-02    -1.636    -1.360     0.276     (0)  
   FeCl+           1.195e-04   7.082e-05    -3.923    -4.150    -0.227     (0)  
   CuCl+           1.045e-05   5.662e-06    -4.981    -5.247    -0.266     (0)  
   CuCl2           1.756e-06   3.318e-06    -5.756    -5.479     0.276     (0)  
   CuCl3-          2.372e-08   1.285e-08    -7.625    -7.891    -0.266     (0)  
   CuCl4-2         5.701e-10   7.027e-11    -9.244   -10.153    -0.909     (0)  
   CuCl3-2         9.628e-12   1.187e-12   -11.016   -11.926    -0.909     (0)  
   CuCl2-          1.267e-12   6.862e-13   -11.897   -12.164    -0.266     (0)  
Cu(1)         1.089e-11
   CuCl3-2         9.628e-12   1.187e-12   -11.016   -11.926    -0.909     (0)  
   CuCl2-          1.267e-12   6.862e-13   -11.897   -12.164    -0.266     (0)  
   Cu+             4.160e-18   1.822e-18   -17.381   -17.739    -0.358     (0)  
Cu(2)         2.420e-05
   Cu+2            1.197e-05   1.928e-06    -4.922    -5.715    -0.793     (0)  
   CuCl+           1.045e-05   5.662e-06    -4.981    -5.247    -0.266     (0)  
   CuCl2           1.756e-06   3.318e-06    -5.756    -5.479     0.276     (0)  
   CuCl3-          2.372e-08   1.285e-08    -7.625    -7.891    -0.266     (0)  
   CuCl4-2         5.701e-10   7.027e-11    -9.244   -10.153    -0.909     (0)  
   CuSO4           1.698e-10   3.208e-10    -9.770    -9.494     0.276     (0)  
   CuOH+           3.322e-12   1.799e-12   -11.479   -11.745    -0.266     (0)  
   Cu(OH)2         1.857e-16   3.509e-16   -15.731   -15.455     0.276     (0)  
   Cu2(OH)2+2      5.410e-19   1.417e-18   -18.267   -17.849     0.418     (0)  
   Cu(OH)3-        1.551e-27   1.973e-27   -26.809   -26.705     0.105     (0)  
   Cu(OH)4-2       1.404e-38   3.675e-38   -37.853   -37.435     0.418     (0)  
   Cu(HS)3-        0.000e+00   0.000e+00  -304.493  -304.389     0.105     (0)  
Fe(2)         4.115e-04
   Fe+2            2.919e-04   4.701e-05    -3.535    -4.328    -0.793     (0)  
   FeCl+           1.195e-04   7.082e-05    -3.923    -4.150    -0.227     (0)  
   FeSO4           3.606e-09   6.815e-09    -8.443    -8.167     0.276     (0)  
   FeHSO4+         3.572e-10   4.544e-10    -9.447    -9.343     0.105     (0)  
   FeOH+           2.342e-12   1.388e-12   -11.630   -11.858    -0.227     (0)  
   Fe(OH)2         5.833e-22   1.102e-21   -21.234   -20.958     0.276     (0)  
   Fe(OH)3-        6.452e-30   3.823e-30   -29.190   -29.418    -0.227     (0)  
   Fe(HS)2         0.000e+00   0.000e+00  -212.037  -211.760     0.276     (0)  
   Fe(HS)3-        0.000e+00   0.000e+00  -318.019  -317.915     0.105     (0)  
Fe(3)         1.065e+00
   FeCl+2          6.665e-01   8.215e-02    -0.176    -1.085    -0.909     (0)  
   FeCl2+          3.148e-01   4.005e-01    -0.502    -0.397     0.105     (0)  
   Fe+3            4.863e-02   2.493e-03    -1.313    -2.603    -1.290     (0)  
   FeCl3           2.312e-02   4.370e-02    -1.636    -1.360     0.276     (0)  
   FeOH+2          1.219e-02   1.502e-03    -1.914    -2.823    -0.909     (0)  
   Fe(OH)2+        7.613e-05   4.643e-05    -4.118    -4.333    -0.215     (0)  
   FeSO4+          3.760e-05   2.228e-05    -4.425    -4.652    -0.227     (0)  
   Fe2(OH)2+4      1.292e-06   6.074e-05    -5.889    -4.216     1.672     (0)  
   FeHSO4+2        2.311e-07   6.053e-07    -6.636    -6.218     0.418     (0)  
   Fe3(OH)4+5      1.437e-09   5.893e-07    -8.843    -6.230     2.613     (0)  
   Fe(SO4)2-       3.124e-10   3.974e-10    -9.505    -9.401     0.105     (0)  
   Fe(OH)3         2.954e-10   5.583e-10    -9.530    -9.253     0.276     (0)  
   Fe(OH)4-        7.792e-17   4.753e-17   -16.108   -16.323    -0.215     (0)  
H(0)          2.501e-37
   H2              1.250e-37   2.363e-37   -36.903   -36.626     0.276     (0)  
Na            1.066e-01
   Na+             1.066e-01   9.305e-02    -0.972    -1.031    -0.059     (0)  
   NaSO4-          6.233e-07   3.802e-07    -6.205    -6.420    -0.215     (0)  
O(0)          7.082e-20
   O2              3.541e-20   6.692e-20   -19.451   -19.174     0.276     (0)  
S(-2)         0.000e+00
   H2S             0.000e+00   0.000e+00  -103.520  -103.243     0.276     (0)  
   HS-             0.000e+00   0.000e+00  -107.900  -108.191    -0.291     (0)  
   S5-2            0.000e+00   0.000e+00  -115.344  -115.793    -0.449     (0)  
   S4-2            0.000e+00   0.000e+00  -115.502  -116.027    -0.525     (0)  
   S6-2            0.000e+00   0.000e+00  -115.686  -116.079    -0.392     (0)  
   S-2             0.000e+00   0.000e+00  -118.206  -119.116    -0.909     (0)  
   S3-2            0.000e+00   0.000e+00  -118.848  -119.480    -0.632     (0)  
   S2-2            0.000e+00   0.000e+00  -119.980  -120.726    -0.745     (0)  
   Fe(HS)2         0.000e+00   0.000e+00  -212.037  -211.760     0.276     (0)  
   Cu(HS)3-        0.000e+00   0.000e+00  -304.493  -304.389     0.105     (0)  
   Fe(HS)3-        0.000e+00   0.000e+00  -318.019  -317.915     0.105     (0)  
S(6)          4.841e-05
   FeSO4+          3.760e-05   2.228e-05    -4.425    -4.652    -0.227     (0)  
   SO4-2           8.531e-06   8.152e-07    -5.069    -6.089    -1.020     (0)  
   HSO4-           1.414e-06   8.040e-07    -5.850    -6.095    -0.245     (0)  
   NaSO4-          6.233e-07   3.802e-07    -6.205    -6.420    -0.215     (0)  
   FeHSO4+2        2.311e-07   6.053e-07    -6.636    -6.218     0.418     (0)  
   FeSO4           3.606e-09   6.815e-09    -8.443    -8.167     0.276     (0)  
   FeHSO4+         3.572e-10   4.544e-10    -9.447    -9.343     0.105     (0)  
   Fe(SO4)2-       3.124e-10   3.974e-10    -9.505    -9.401     0.105     (0)  
   CuSO4           1.698e-10   3.208e-10    -9.770    -9.494     0.276     (0)  

------------------------------Saturation indices-------------------------------

  Phase               SI** log IAP   log K(298 K,   1 atm)

  Anilite        -102.36   -134.24  -31.88  Cu0.25Cu1.5S
  Antlerite       -23.64    -15.35    8.29  Cu3(OH)4SO4
  Atacamite       -12.82     -5.48    7.34  Cu2(OH)3Cl
  BlaubleiI       -90.73   -114.89  -24.16  Cu0.9Cu0.2S
  BlaubleiII      -96.54   -123.82  -27.28  Cu0.6Cu0.8S
  Brochantite     -32.47    -17.13   15.34  Cu4(OH)6SO4
  Chalcanthite     -9.28    -11.92   -2.64  CuSO4:5H2O
  Chalcocite     -107.06   -141.68  -34.62  Cu2S
  Chalcopyrite   -187.17   -222.44  -35.27  CuFeS2
  Covellite       -89.64   -111.91  -22.27  CuS
  Cu(OH)2         -10.41     -1.77    8.64  Cu(OH)2
  Cu2SO4          -39.62    -41.57   -1.95  Cu2SO4
  CuMetal         -23.72    -32.48   -8.76  Cu
  CuOCuSO4        -25.08    -13.55   11.53  CuO:CuSO4
  CupricFerrite    -0.95      4.93    5.88  CuFe2O4
  Cuprite         -29.97    -31.52   -1.55  Cu2O
  CuprousFerrite   -3.50    -12.42   -8.92  CuFeO2
  CuSO4           -14.81    -11.80    3.01  CuSO4
  Djurleite      -105.79   -139.71  -33.92  Cu0.066Cu1.868S
  Fe(OH)2.7Cl.3     5.77      2.73   -3.04  Fe(OH)2.7Cl0.3
  Fe(OH)3(a)       -1.58      3.31    4.89  Fe(OH)3
  Fe3(OH)8        -14.00      6.23   20.22  Fe3(OH)8
  FeS(ppt)       -106.61   -110.53   -3.92  FeS
  Goethite          4.33      3.33   -1.00  FeOOH
  Greigite       -389.29   -434.32  -45.03  Fe3S4
  H2(g)           -33.48    -36.63   -3.15  H2
  H2O(g)           -1.53     -0.02    1.51  H2O
  H2S(g)         -102.25   -103.24   -1.00  H2S
  Halite           -2.58     -0.99    1.58  NaCl
  Hematite         10.69      6.68   -4.01  Fe2O3
  Jarosite-Na      -3.92     -9.20   -5.28  NaFe3(SO4)2(OH)6
  JarositeH        -4.79    -10.18   -5.39  (H3O)Fe3(SO4)2(OH)6
  Langite         -33.94    -17.15   16.79  Cu4(OH)6SO4:H2O
  Mackinawite    -105.88   -110.53   -4.65  FeS
  Maghemite         0.30      6.68    6.39  Fe2O3
  Magnetite         2.58      6.32    3.74  Fe3O4
  Melanothallite   -9.37     -5.64    3.73  CuCl2
  Melanterite      -8.37    -10.58   -2.21  FeSO4:7H2O
  Mirabilite       -7.27     -8.39   -1.11  Na2SO4:10H2O
  Nantokite       -10.94    -17.70   -6.76  CuCl
  O2(g)           -16.28    -19.17   -2.89  O2
  Pyrite         -168.75   -187.23  -18.48  FeS2
  Sulfur          -74.60    -89.63  -15.03  S
  Tenorite         -9.37     -1.75    7.62  CuO
  Thenardite       -7.97     -8.15   -0.18  Na2SO4

**For a gas, SI = log10(fugacity). Fugacity = pressure * phi / 1 atm.
  For ideal gases, phi = 1.

Reaction step 2.

Using solution 1.	
Using pure phase assemblage 1.	
Using kinetics 1.	

Kinetics 1.	

	Time step: 5184 seconds  (Incremented time: 10368 seconds)

	Rate name       Delta Moles Total Moles   Reactant        Coefficient

	Chalcopyrite     -2.479e-05   8.093e-02   Cu+2                      1
	                                          Fe+2                      5
	                                          Fe+3                     -4
	                                          Sulfur                    2

-------------------------------Phase assemblage--------------------------------

                                                      Moles in assemblage
Phase               SI  log IAP  log K(T, P)   Initial       Final       Delta

Pyrite         -163.44  -181.92    -18.48    0.000e+00           0   0.000e+00
Sulfur          -72.41   -87.43    -15.03    0.000e+00           0   0.000e+00

-----------------------------Solution composition------------------------------

	Elements           Molality       Moles

	Cl                3.305e+00   3.305e+00
	Cu                4.899e-05   4.899e-05
	Fe                1.066e+00   1.066e+00
	Na                1.066e-01   1.066e-01
	S                 9.799e-05   9.799e-05

----------------------------Description of solution----------------------------

                                       pH  =   1.987      Charge balance
                                       pe  =  14.438      Adjusted to redox equilibrium
                        Activity of water  =   0.947
                 Ionic strength (mol/kgw)  =   2.765e+00
                       Mass of water (kg)  =   1.000e+00
                 Total alkalinity (eq/kg)  =  -2.132e+00
                         Temperature (°C)  =  25.00
                  Electrical balance (eq)  =  -2.503e-09
 Percent error, 100*(Cat-|An|)/(Cat+|An|)  =  -0.00
                               Iterations  =  27 (73 overall)
                                  Total H  = 1.110389e+02
                                  Total O  = 5.551874e+01

----------------------------Distribution of species----------------------------

                                               Log       Log       Log    mole V
   Species          Molality    Activity  Molality  Activity     Gamma   cm³/mol

   H+              1.432e-02   1.029e-02    -1.844    -1.987    -0.143      0.00
   OH-             1.801e-12   9.208e-13   -11.745   -12.036    -0.291     (0)  
   H2O             5.551e+01   9.468e-01     1.744    -0.024     0.000     18.07
Cl            3.305e+00
   Cl-             1.940e+00   1.091e+00     0.288     0.038    -0.250     (0)  
   FeCl+2          6.663e-01   8.213e-02    -0.176    -1.085    -0.909     (0)  
   FeCl2+          3.147e-01   4.004e-01    -0.502    -0.398     0.105     (0)  
   FeCl3           2.312e-02   4.370e-02    -1.636    -1.360     0.276     (0)  
   FeCl+           2.420e-04   1.434e-04    -3.616    -3.844    -0.227     (0)  
   CuCl+           2.116e-05   1.146e-05    -4.674    -4.941    -0.266     (0)  
   CuCl2           3.554e-06   6.718e-06    -5.449    -5.173     0.276     (0)  
   CuCl3-          4.802e-08   2.601e-08    -7.319    -7.585    -0.266     (0)  
   CuCl4-2         1.154e-09   1.423e-10    -8.938    -9.847    -0.909     (0)  
   CuCl3-2         3.947e-11   4.865e-12   -10.404   -11.313    -0.909     (0)  
   CuCl2-          5.193e-12   2.813e-12   -11.285   -11.551    -0.266     (0)  
Cu(1)         4.466e-11
   CuCl3-2         3.947e-11   4.865e-12   -10.404   -11.313    -0.909     (0)  
   CuCl2-          5.193e-12   2.813e-12   -11.285   -11.551    -0.266     (0)  
   Cu+             1.705e-17   7.468e-18   -16.768   -17.127    -0.359     (0)  
Cu(2)         4.899e-05
   Cu+2            2.423e-05   3.902e-06    -4.616    -5.409    -0.793     (0)  
   CuCl+           2.116e-05   1.146e-05    -4.674    -4.941    -0.266     (0)  
   CuCl2           3.554e-06   6.718e-06    -5.449    -5.173     0.276     (0)  
   CuCl3-          4.802e-08   2.601e-08    -7.319    -7.585    -0.266     (0)  
   CuCl4-2         1.154e-09   1.423e-10    -8.938    -9.847    -0.909     (0)  
   CuSO4           6.953e-10   1.314e-09    -9.158    -8.881     0.276     (0)  
   CuOH+           6.626e-12   3.589e-12   -11.179   -11.445    -0.266     (0)  
   Cu(OH)2         3.649e-16   6.897e-16   -15.438   -15.161     0.276     (0)  
   Cu2(OH)2+2      2.152e-18   5.636e-18   -17.667   -17.249     0.418     (0)  
   Cu(OH)3-        3.005e-27   3.822e-27   -26.522   -26.418     0.105     (0)  
   Cu(OH)4-2       2.678e-38   7.014e-38   -37.572   -37.154     0.418     (0)  
   Cu(HS)3-        0.000e+00   0.000e+00  -295.743  -295.639     0.105     (0)  
Fe(2)         8.329e-04
   Fe+2            5.909e-04   9.516e-05    -3.228    -4.022    -0.793     (0)  
   FeCl+           2.420e-04   1.434e-04    -3.616    -3.844    -0.227     (0)  
   FeSO4           1.477e-08   2.791e-08    -7.831    -7.554     0.276     (0)  
   FeHSO4+         1.485e-09   1.889e-09    -8.828    -8.724     0.105     (0)  
   FeOH+           4.671e-12   2.768e-12   -11.331   -11.558    -0.227     (0)  
   Fe(OH)2         1.146e-21   2.167e-21   -20.941   -20.664     0.276     (0)  
   Fe(OH)3-        1.250e-29   7.405e-30   -28.903   -29.131    -0.227     (0)  
   Fe(HS)2         0.000e+00   0.000e+00  -206.101  -205.825     0.276     (0)  
   Fe(HS)3-        0.000e+00   0.000e+00  -309.269  -309.165     0.105     (0)  
Fe(3)         1.065e+00
   FeCl+2          6.663e-01   8.213e-02    -0.176    -1.085    -0.909     (0)  
   FeCl2+          3.147e-01   4.004e-01    -0.502    -0.398     0.105     (0)  
   Fe+3            4.861e-02   2.492e-03    -1.313    -2.603    -1.290     (0)  
   FeCl3           2.312e-02   4.370e-02    -1.636    -1.360     0.276     (0)  
   FeOH+2          1.201e-02   1.480e-03    -1.921    -2.830    -0.909     (0)  
   FeSO4+          7.607e-05   4.507e-05    -4.119    -4.346    -0.227     (0)  
   Fe(OH)2+        7.390e-05   4.507e-05    -4.131    -4.346    -0.215     (0)  
   Fe2(OH)2+4      1.253e-06   5.895e-05    -5.902    -4.230     1.672     (0)  
   FeHSO4+2        4.744e-07   1.242e-06    -6.324    -5.906     0.418     (0)  
   Fe3(OH)4+5      1.353e-09   5.551e-07    -8.869    -6.256     2.613     (0)  
   Fe(SO4)2-       1.279e-09   1.627e-09    -8.893    -8.789     0.105     (0)  
   Fe(OH)3         2.826e-10   5.341e-10    -9.549    -9.272     0.276     (0)  
   Fe(OH)4-        7.345e-17   4.480e-17   -16.134   -16.349    -0.215     (0)  
H(0)          1.056e-36
   H2              5.279e-37   9.978e-37   -36.277   -36.001     0.276     (0)  
Na            1.066e-01
   Na+             1.066e-01   9.305e-02    -0.972    -1.031    -0.059     (0)  
   NaSO4-          1.261e-06   7.693e-07    -5.899    -6.114    -0.215     (0)  
O(0)          3.972e-21
   O2              1.986e-21   3.754e-21   -20.702   -20.426     0.276     (0)  
S(-2)         0.000e+00
   H2S             0.000e+00   0.000e+00  -100.699  -100.422     0.276     (0)  
   HS-             0.000e+00   0.000e+00  -105.085  -105.377    -0.291     (0)  
   S5-2            0.000e+00   0.000e+00  -112.535  -112.984    -0.449     (0)  
   S4-2            0.000e+00   0.000e+00  -112.693  -113.218    -0.525     (0)  
   S6-2            0.000e+00   0.000e+00  -112.878  -113.270    -0.392     (0)  
   S-2             0.000e+00   0.000e+00  -115.398  -116.307    -0.909     (0)  
   S3-2            0.000e+00   0.000e+00  -116.040  -116.671    -0.632     (0)  
   S2-2            0.000e+00   0.000e+00  -117.172  -117.917    -0.745     (0)  
   Fe(HS)2         0.000e+00   0.000e+00  -206.101  -205.825     0.276     (0)  
   Cu(HS)3-        0.000e+00   0.000e+00  -295.743  -295.639     0.105     (0)  
   Fe(HS)3-        0.000e+00   0.000e+00  -309.269  -309.165     0.105     (0)  
S(6)          9.799e-05
   FeSO4+          7.607e-05   4.507e-05    -4.119    -4.346    -0.227     (0)  
   SO4-2           1.726e-05   1.650e-06    -4.763    -5.783    -1.020     (0)  
   HSO4-           2.904e-06   1.651e-06    -5.537    -5.782    -0.245     (0)  
   NaSO4-          1.261e-06   7.693e-07    -5.899    -6.114    -0.215     (0)  
   FeHSO4+2        4.744e-07   1.242e-06    -6.324    -5.906     0.418     (0)  
   FeSO4           1.477e-08   2.791e-08    -7.831    -7.554     0.276     (0)  
   FeHSO4+         1.485e-09   1.889e-09    -8.828    -8.724     0.105     (0)  
   Fe(SO4)2-       1.279e-09   1.627e-09    -8.893    -8.789     0.105     (0)  
   CuSO4           6.953e-10   1.314e-09    -9.158    -8.881     0.276     (0)  

------------------------------Saturation indices-------------------------------

  Phase               SI** log IAP   log K(298 K,   1 atm)

  Anilite         -98.55   -130.43  -31.88  Cu0.25Cu1.5S
  Antlerite       -22.44    -14.15    8.29  Cu3(OH)4SO4
  Atacamite       -12.23     -4.89    7.34  Cu2(OH)3Cl
  BlaubleiI       -87.52   -111.68  -24.16  Cu0.9Cu0.2S
  BlaubleiII      -93.06   -120.34  -27.28  Cu0.6Cu0.8S
  Brochantite     -30.98    -15.64   15.34  Cu4(OH)6SO4
  Chalcanthite     -8.67    -11.31   -2.64  CuSO4:5H2O
  Chalcocite     -103.02   -137.64  -34.62  Cu2S
  Chalcopyrite   -180.94   -216.21  -35.27  CuFeS2
  Covellite       -86.53   -108.80  -22.27  CuS
  Cu(OH)2         -10.12     -1.48    8.64  Cu(OH)2
  Cu2SO4          -38.09    -40.04   -1.95  Cu2SO4
  CuMetal         -22.80    -31.56   -8.76  Cu
  CuOCuSO4        -24.18    -12.65   11.53  CuO:CuSO4
  CupricFerrite    -0.69      5.19    5.88  CuFe2O4
  Cuprite         -28.75    -30.30   -1.55  Cu2O
  CuprousFerrite   -2.91    -11.83   -8.92  CuFeO2
  CuSO4           -14.20    -11.19    3.01  CuSO4
  Djurleite      -101.82   -135.74  -33.92  Cu0.066Cu1.868S
  Fe(OH)2.7Cl.3     5.75      2.71   -3.04  Fe(OH)2.7Cl0.3
  Fe(OH)3(a)       -1.60      3.29    4.89  Fe(OH)3
  Fe3(OH)8        -13.74      6.48   20.22  Fe3(OH)8
  FeS(ppt)       -103.50   -107.41   -3.92  FeS
  Goethite          4.31      3.31   -1.00  FeOOH
  Greigite       -377.75   -422.79  -45.03  Fe3S4
  H2(g)           -32.85    -36.00   -3.15  H2
  H2O(g)           -1.53     -0.02    1.51  H2O
  H2S(g)          -99.43   -100.42   -1.00  H2S
  Halite           -2.58     -0.99    1.58  NaCl
  Hematite         10.65      6.65   -4.01  Fe2O3
  Jarosite-Na      -3.34     -8.62   -5.28  NaFe3(SO4)2(OH)6
  JarositeH        -4.21     -9.60   -5.39  (H3O)Fe3(SO4)2(OH)6
  Langite         -32.45    -15.66   16.79  Cu4(OH)6SO4:H2O
  Mackinawite    -102.76   -107.41   -4.65  FeS
  Maghemite         0.26      6.65    6.39  Fe2O3
  Magnetite         2.84      6.58    3.74  Fe3O4
  Melanothallite   -9.06     -5.33    3.73  CuCl2
  Melanterite      -7.76     -9.97   -2.21  FeSO4:7H2O
  Mirabilite       -6.97     -8.08   -1.11  Na2SO4:10H2O
  Nantokite       -10.33    -17.09   -6.76  CuCl
  O2(g)           -17.53    -20.43   -2.89  O2
  Pyrite         -163.44   -181.92  -18.48  FeS2
  Sulfur          -72.41    -87.43  -15.03  S
  Tenorite         -9.08     -1.46    7.62  CuO
  Thenardite       -7.67     -7.85   -0.18  Na2SO4

**For a gas, SI = log10(fugacity). Fugacity = pressure * phi / 1 atm.
  For ideal gases, phi = 1.

Reaction step 3.

Using solution 1.	
Using pure phase assemblage 1.	
Using kinetics 1.	

Kinetics 1.	

	Time step: 5184 seconds  (Incremented time: 15552 seconds)

	Rate name       Delta Moles Total Moles   Reactant        Coefficient

	Chalcopyrite     -2.541e-05   8.091e-02   Cu+2                      1
	                                          Fe+2                      5
	                                          Fe+3                     -4
	                                          Sulfur                    2

-------------------------------Phase assemblage--------------------------------

                                                      Moles in assemblage
Phase               SI  log IAP  log K(T, P)   Initial       Final       Delta

Pyrite         -160.25  -178.73    -18.48    0.000e+00           0   0.000e+00
Sulfur          -71.08   -86.11    -15.03    0.000e+00           0   0.000e+00

-----------------------------Solution composition------------------------------

	Elements           Molality       Moles

	Cl                3.305e+00   3.305e+00
	Cu                7.441e-05   7.441e-05
	Fe                1.066e+00   1.066e+00
	Na                1.066e-01   1.066e-01
	S                 1.488e-04   1.488e-04

----------------------------Description of solution----------------------------

                                       pH  =   1.981      Charge balance
                                       pe  =  14.256      Adjusted to redox equilibrium
                        Activity of water  =   0.947
                 Ionic strength (mol/kgw)  =   2.765e+00
                       Mass of water (kg)  =   1.000e+00
                 Total alkalinity (eq/kg)  =  -2.132e+00
                         Temperature (°C)  =  25.00
                  Electrical balance (eq)  =  -2.503e-09
 Percent error, 100*(Cat-|An|)/(Cat+|An|)  =  -0.00
                               Iterations  =  25 (67 overall)
                                  Total H  = 1.110389e+02
                                  Total O  = 5.551874e+01

----------------------------Distribution of species----------------------------

                                               Log       Log       Log    mole V
   Species          Molality    Activity  Molality  Activity     Gamma   cm³/mol

   H+              1.454e-02   1.045e-02    -1.838    -1.981    -0.143      0.00
   OH-             1.774e-12   9.070e-13   -11.751   -12.042    -0.291     (0)  
   H2O             5.551e+01   9.468e-01     1.744    -0.024     0.000     18.07
Cl            3.305e+00
   Cl-             1.940e+00   1.091e+00     0.288     0.038    -0.250     (0)  
   FeCl+2          6.662e-01   8.211e-02    -0.176    -1.086    -0.909     (0)  
   FeCl2+          3.147e-01   4.003e-01    -0.502    -0.398     0.105     (0)  
   FeCl3           2.312e-02   4.369e-02    -1.636    -1.360     0.276     (0)  
   FeCl+           3.675e-04   2.177e-04    -3.435    -3.662    -0.227     (0)  
   CuCl+           3.214e-05   1.741e-05    -4.493    -4.759    -0.266     (0)  
   CuCl2           5.398e-06   1.020e-05    -5.268    -4.991     0.276     (0)  
   CuCl3-          7.295e-08   3.951e-08    -7.137    -7.403    -0.266     (0)  
   CuCl4-2         1.754e-09   2.161e-10    -8.756    -9.665    -0.909     (0)  
   CuCl3-2         9.108e-11   1.123e-11   -10.041   -10.950    -0.909     (0)  
   CuCl2-          1.198e-11   6.490e-12   -10.921   -11.188    -0.266     (0)  
Cu(1)         1.031e-10
   CuCl3-2         9.108e-11   1.123e-11   -10.041   -10.950    -0.909     (0)  
   CuCl2-          1.198e-11   6.490e-12   -10.921   -11.188    -0.266     (0)  
   Cu+             3.933e-17   1.723e-17   -16.405   -16.764    -0.359     (0)  
Cu(2)         7.441e-05
   Cu+2            3.680e-05   5.925e-06    -4.434    -5.227    -0.793     (0)  
   CuCl+           3.214e-05   1.741e-05    -4.493    -4.759    -0.266     (0)  
   CuCl2           5.398e-06   1.020e-05    -5.268    -4.991     0.276     (0)  
   CuCl3-          7.295e-08   3.951e-08    -7.137    -7.403    -0.266     (0)  
   CuCl4-2         1.754e-09   2.161e-10    -8.756    -9.665    -0.909     (0)  
   CuSO4           1.603e-09   3.030e-09    -8.795    -8.519     0.276     (0)  
   CuOH+           9.911e-12   5.369e-12   -11.004   -11.270    -0.266     (0)  
   Cu(OH)2         5.377e-16   1.016e-15   -15.269   -14.993     0.276     (0)  
   Cu2(OH)2+2      4.815e-18   1.261e-17   -17.317   -16.899     0.418     (0)  
   Cu(OH)3-        4.361e-27   5.548e-27   -26.360   -26.256     0.105     (0)  
   Cu(OH)4-2       3.829e-38   1.003e-37   -37.417   -36.999     0.418     (0)  
   Cu(HS)3-        0.000e+00   0.000e+00  -290.483  -290.379     0.105     (0)  
Fe(2)         1.265e-03
   Fe+2            8.974e-04   1.445e-04    -3.047    -3.840    -0.793     (0)  
   FeCl+           3.675e-04   2.177e-04    -3.435    -3.662    -0.227     (0)  
   FeSO4           3.405e-08   6.435e-08    -7.468    -7.191     0.276     (0)  
   FeHSO4+         3.475e-09   4.421e-09    -8.459    -8.355     0.105     (0)  
   FeOH+           6.988e-12   4.140e-12   -11.156   -11.383    -0.227     (0)  
   Fe(OH)2         1.689e-21   3.193e-21   -20.772   -20.496     0.276     (0)  
   Fe(OH)3-        1.814e-29   1.075e-29   -28.741   -28.969    -0.227     (0)  
   Fe(HS)2         0.000e+00   0.000e+00  -202.534  -202.258     0.276     (0)  
   Fe(HS)3-        0.000e+00   0.000e+00  -304.009  -303.905     0.105     (0)  
Fe(3)         1.065e+00
   FeCl+2          6.662e-01   8.211e-02    -0.176    -1.086    -0.909     (0)  
   FeCl2+          3.147e-01   4.003e-01    -0.502    -0.398     0.105     (0)  
   Fe+3            4.859e-02   2.491e-03    -1.313    -2.604    -1.290     (0)  
   FeCl3           2.312e-02   4.369e-02    -1.636    -1.360     0.276     (0)  
   FeOH+2          1.182e-02   1.457e-03    -1.927    -2.836    -0.909     (0)  
   FeSO4+          1.154e-04   6.840e-05    -3.938    -4.165    -0.227     (0)  
   Fe(OH)2+        7.168e-05   4.372e-05    -4.145    -4.359    -0.215     (0)  
   Fe2(OH)2+4      1.214e-06   5.716e-05    -5.916    -4.243     1.673     (0)  
   FeHSO4+2        7.308e-07   1.914e-06    -6.136    -5.718     0.418     (0)  
   Fe(SO4)2-       2.946e-09   3.747e-09    -8.531    -8.426     0.105     (0)  
   Fe3(OH)4+5      1.271e-09   5.221e-07    -8.896    -6.282     2.614     (0)  
   Fe(OH)3         2.700e-10   5.103e-10    -9.569    -9.292     0.276     (0)  
   Fe(OH)4-        6.914e-17   4.217e-17   -16.160   -16.375    -0.215     (0)  
H(0)          2.511e-36
   H2              1.255e-36   2.373e-36   -35.901   -35.625     0.276     (0)  
Na            1.066e-01
   Na+             1.066e-01   9.305e-02    -0.972    -1.031    -0.059     (0)  
   NaSO4-          1.915e-06   1.168e-06    -5.718    -5.933    -0.215     (0)  
O(0)          7.023e-22
   O2              3.512e-22   6.637e-22   -21.455   -21.178     0.276     (0)  
S(-2)         0.000e+00
   H2S             0.000e+00   0.000e+00   -98.999   -98.723     0.276     (0)  
   HS-             0.000e+00   0.000e+00  -103.393  -103.684    -0.291     (0)  
   S5-2            0.000e+00   0.000e+00  -110.849  -111.298    -0.449     (0)  
   S4-2            0.000e+00   0.000e+00  -111.007  -111.532    -0.525     (0)  
   S6-2            0.000e+00   0.000e+00  -111.192  -111.584    -0.392     (0)  
   S-2             0.000e+00   0.000e+00  -113.712  -114.621    -0.909     (0)  
   S3-2            0.000e+00   0.000e+00  -114.353  -114.985    -0.632     (0)  
   S2-2            0.000e+00   0.000e+00  -115.485  -116.231    -0.745     (0)  
   Fe(HS)2         0.000e+00   0.000e+00  -202.534  -202.258     0.276     (0)  
   Cu(HS)3-        0.000e+00   0.000e+00  -290.483  -290.379     0.105     (0)  
   Fe(HS)3-        0.000e+00   0.000e+00  -304.009  -303.905     0.105     (0)  
S(6)          1.488e-04
   FeSO4+          1.154e-04   6.840e-05    -3.938    -4.165    -0.227     (0)  
   SO4-2           2.621e-05   2.504e-06    -4.582    -5.601    -1.020     (0)  
   HSO4-           4.475e-06   2.544e-06    -5.349    -5.594    -0.245     (0)  
   NaSO4-          1.915e-06   1.168e-06    -5.718    -5.933    -0.215     (0)  
   FeHSO4+2        7.308e-07   1.914e-06    -6.136    -5.718     0.418     (0)  
   FeSO4           3.405e-08   6.435e-08    -7.468    -7.191     0.276     (0)  
   FeHSO4+         3.475e-09   4.421e-09    -8.459    -8.355     0.105     (0)  
   Fe(SO4)2-       2.946e-09   3.747e-09    -8.531    -8.426     0.105     (0)  
   CuSO4           1.603e-09   3.030e-09    -8.795    -8.519     0.276     (0)  

------------------------------Saturation indices-------------------------------

  Phase               SI** log IAP   log K(298 K,   1 atm)

  Anilite         -96.28   -128.16  -31.88  Cu0.25Cu1.5S
  Antlerite       -21.74    -13.45    8.29  Cu3(OH)4SO4
  Atacamite       -11.89     -4.55    7.34  Cu2(OH)3Cl
  BlaubleiI       -85.60   -109.76  -24.16  Cu0.9Cu0.2S
  BlaubleiII      -90.97   -118.25  -27.28  Cu0.6Cu0.8S
  Brochantite     -30.11    -14.77   15.34  Cu4(OH)6SO4
  Chalcanthite     -8.31    -10.95   -2.64  CuSO4:5H2O
  Chalcocite     -100.61   -135.23  -34.62  Cu2S
  Chalcopyrite   -177.20   -212.47  -35.27  CuFeS2
  Covellite       -84.66   -106.93  -22.27  CuS
  Cu(OH)2          -9.95     -1.31    8.64  Cu(OH)2
  Cu2SO4          -37.18    -39.13   -1.95  Cu2SO4
  CuMetal         -22.26    -31.02   -8.76  Cu
  CuOCuSO4        -23.65    -12.12   11.53  CuO:CuSO4
  CupricFerrite    -0.56      5.32    5.88  CuFe2O4
  Cuprite         -28.04    -29.59   -1.55  Cu2O
  CuprousFerrite   -2.57    -11.49   -8.92  CuFeO2
  CuSO4           -13.84    -10.83    3.01  CuSO4
  Djurleite       -99.44   -133.36  -33.92  Cu0.066Cu1.868S
  Fe(OH)2.7Cl.3     5.73      2.69   -3.04  Fe(OH)2.7Cl0.3
  Fe(OH)3(a)       -1.62      3.27    4.89  Fe(OH)3
  Fe3(OH)8        -13.61      6.61   20.22  Fe3(OH)8
  FeS(ppt)       -101.63   -105.54   -3.92  FeS
  Goethite          4.29      3.29   -1.00  FeOOH
  Greigite       -370.82   -415.86  -45.03  Fe3S4
  H2(g)           -32.47    -35.62   -3.15  H2
  H2O(g)           -1.53     -0.02    1.51  H2O
  H2S(g)          -97.73    -98.72   -1.00  H2S
  Halite           -2.58     -0.99    1.58  NaCl
  Hematite         10.61      6.61   -4.01  Fe2O3
  Jarosite-Na      -3.02     -8.30   -5.28  NaFe3(SO4)2(OH)6
  JarositeH        -3.89     -9.28   -5.39  (H3O)Fe3(SO4)2(OH)6
  Langite         -31.58    -14.79   16.79  Cu4(OH)6SO4:H2O
  Mackinawite    -100.90   -105.54   -4.65  FeS
  Maghemite         0.22      6.61    6.39  Fe2O3
  Magnetite         2.97      6.70    3.74  Fe3O4
  Melanothallite   -8.88     -5.15    3.73  CuCl2
  Melanterite      -7.40     -9.61   -2.21  FeSO4:7H2O
  Mirabilite       -6.79     -7.90   -1.11  Na2SO4:10H2O
  Nantokite        -9.97    -16.73   -6.76  CuCl
  O2(g)           -18.29    -21.18   -2.89  O2
  Pyrite         -160.25   -178.73  -18.48  FeS2
  Sulfur          -71.08    -86.11  -15.03  S
  Tenorite         -8.91     -1.29    7.62  CuO
  Thenardite       -7.48     -7.66   -0.18  Na2SO4

**For a gas, SI = log10(fugacity). Fugacity = pressure * phi / 1 atm.
  For ideal gases, phi = 1.

Reaction step 4.

Using solution 1.	
Using pure phase assemblage 1.	
Using kinetics 1.	

Kinetics 1.	

	Time step: 5184 seconds  (Incremented time: 20736 seconds)

	Rate name       Delta Moles Total Moles   Reactant        Coefficient

	Chalcopyrite     -2.606e-05   8.088e-02   Cu+2                      1
	                                          Fe+2                      5
	                                          Fe+3                     -4
	                                          Sulfur                    2

-------------------------------Phase assemblage--------------------------------

                                                      Moles in assemblage
Phase               SI  log IAP  log K(T, P)   Initial       Final       Delta

Pyrite         -157.93  -176.41    -18.48    0.000e+00           0   0.000e+00
Sulfur          -70.11   -85.14    -15.03    0.000e+00           0   0.000e+00

-----------------------------Solution composition------------------------------

	Elements           Molality       Moles

	Cl                3.305e+00   3.305e+00
	Cu                1.005e-04   1.005e-04
	Fe                1.066e+00   1.066e+00
	Na                1.066e-01   1.066e-01
	S                 2.009e-04   2.009e-04

----------------------------Description of solution----------------------------

                                       pH  =   1.974      Charge balance
                                       pe  =  14.126      Adjusted to redox equilibrium
                        Activity of water  =   0.947
                 Ionic strength (mol/kgw)  =   2.765e+00
                       Mass of water (kg)  =   1.000e+00
                 Total alkalinity (eq/kg)  =  -2.131e+00
                         Temperature (°C)  =  25.00
                  Electrical balance (eq)  =  -2.503e-09
 Percent error, 100*(Cat-|An|)/(Cat+|An|)  =  -0.00
                               Iterations  =  25 (67 overall)
                                  Total H  = 1.110389e+02
                                  Total O  = 5.551874e+01

----------------------------Distribution of species----------------------------

                                               Log       Log       Log    mole V
   Species          Molality    Activity  Molality  Activity     Gamma   cm³/mol

   H+              1.476e-02   1.061e-02    -1.831    -1.974    -0.143      0.00
   OH-             1.747e-12   8.932e-13   -11.758   -12.049    -0.291     (0)  
   H2O             5.551e+01   9.468e-01     1.744    -0.024     0.000     18.07
Cl            3.305e+00
   Cl-             1.940e+00   1.092e+00     0.288     0.038    -0.250     (0)  
   FeCl+2          6.660e-01   8.209e-02    -0.177    -1.086    -0.909     (0)  
   FeCl2+          3.146e-01   4.002e-01    -0.502    -0.398     0.105     (0)  
   FeCl3           2.311e-02   4.369e-02    -1.636    -1.360     0.276     (0)  
   FeCl+           4.962e-04   2.940e-04    -3.304    -3.532    -0.227     (0)  
   CuCl+           4.339e-05   2.350e-05    -4.363    -4.629    -0.266     (0)  
   CuCl2           7.290e-06   1.378e-05    -5.137    -4.861     0.276     (0)  
   CuCl3-          9.852e-08   5.336e-08    -7.006    -7.273    -0.266     (0)  
   CuCl4-2         2.369e-09   2.919e-10    -8.626    -9.535    -0.909     (0)  
   CuCl3-2         1.662e-10   2.048e-11    -9.779   -10.689    -0.909     (0)  
   CuCl2-          2.186e-11   1.184e-11   -10.660   -10.927    -0.266     (0)  
Cu(1)         1.880e-10
   CuCl3-2         1.662e-10   2.048e-11    -9.779   -10.689    -0.909     (0)  
   CuCl2-          2.186e-11   1.184e-11   -10.660   -10.927    -0.266     (0)  
   Cu+             7.173e-17   3.142e-17   -16.144   -16.503    -0.359     (0)  
Cu(2)         1.005e-04
   Cu+2            4.968e-05   8.000e-06    -4.304    -5.097    -0.793     (0)  
   CuCl+           4.339e-05   2.350e-05    -4.363    -4.629    -0.266     (0)  
   CuCl2           7.290e-06   1.378e-05    -5.137    -4.861     0.276     (0)  
   CuCl3-          9.852e-08   5.336e-08    -7.006    -7.273    -0.266     (0)  
   CuSO4           2.921e-09   5.521e-09    -8.534    -8.258     0.276     (0)  
   CuCl4-2         2.369e-09   2.919e-10    -8.626    -9.535    -0.909     (0)  
   CuOH+           1.318e-11   7.138e-12   -10.880   -11.146    -0.266     (0)  
   Cu(OH)2         7.039e-16   1.331e-15   -15.152   -14.876     0.276     (0)  
   Cu2(OH)2+2      8.510e-18   2.229e-17   -17.070   -16.652     0.418     (0)  
   Cu(OH)3-        5.622e-27   7.153e-27   -26.250   -26.146     0.105     (0)  
   Cu(OH)4-2       4.861e-38   1.273e-37   -37.313   -36.895     0.418     (0)  
   Cu(HS)3-        0.000e+00   0.000e+00  -286.648  -286.543     0.105     (0)  
Fe(2)         1.708e-03
   Fe+2            1.212e-03   1.951e-04    -2.917    -3.710    -0.793     (0)  
   FeCl+           4.962e-04   2.940e-04    -3.304    -3.532    -0.227     (0)  
   FeSO4           6.205e-08   1.173e-07    -7.207    -6.931     0.276     (0)  
   FeHSO4+         6.431e-09   8.182e-09    -8.192    -8.087     0.105     (0)  
   FeOH+           9.291e-12   5.505e-12   -11.032   -11.259    -0.227     (0)  
   Fe(OH)2         2.212e-21   4.180e-21   -20.655   -20.379     0.276     (0)  
   Fe(OH)3-        2.339e-29   1.386e-29   -28.631   -28.858    -0.227     (0)  
   Fe(HS)2         0.000e+00   0.000e+00  -199.934  -199.657     0.276     (0)  
   Fe(HS)3-        0.000e+00   0.000e+00  -300.174  -300.069     0.105     (0)  
Fe(3)         1.064e+00
   FeCl+2          6.660e-01   8.209e-02    -0.177    -1.086    -0.909     (0)  
   FeCl2+          3.146e-01   4.002e-01    -0.502    -0.398     0.105     (0)  
   Fe+3            4.857e-02   2.490e-03    -1.314    -2.604    -1.290     (0)  
   FeCl3           2.311e-02   4.369e-02    -1.636    -1.360     0.276     (0)  
   FeOH+2          1.164e-02   1.434e-03    -1.934    -2.843    -0.909     (0)  
   FeSO4+          1.558e-04   9.229e-05    -3.808    -4.035    -0.227     (0)  
   Fe(OH)2+        6.948e-05   4.238e-05    -4.158    -4.373    -0.215     (0)  
   Fe2(OH)2+4      1.176e-06   5.538e-05    -5.930    -4.257     1.673     (0)  
   FeHSO4+2        1.001e-06   2.623e-06    -5.999    -5.581     0.418     (0)  
   Fe(SO4)2-       5.365e-09   6.825e-09    -8.270    -8.166     0.105     (0)  
   Fe3(OH)4+5      1.193e-09   4.903e-07    -8.923    -6.310     2.614     (0)  
   Fe(OH)3         2.577e-10   4.871e-10    -9.589    -9.312     0.276     (0)  
   Fe(OH)4-        6.498e-17   3.963e-17   -16.187   -16.402    -0.215     (0)  
H(0)          4.724e-36
   H2              2.362e-36   4.465e-36   -35.627   -35.350     0.276     (0)  
Na            1.066e-01
   Na+             1.066e-01   9.305e-02    -0.972    -1.031    -0.059     (0)  
   NaSO4-          2.585e-06   1.576e-06    -5.588    -5.802    -0.215     (0)  
O(0)          1.984e-22
   O2              9.918e-23   1.875e-22   -22.004   -21.727     0.276     (0)  
S(-2)         0.000e+00
   H2S             0.000e+00   0.000e+00   -97.758   -97.481     0.276     (0)  
   HS-             0.000e+00   0.000e+00  -102.158  -102.449    -0.291     (0)  
   S5-2            0.000e+00   0.000e+00  -109.621  -110.070    -0.449     (0)  
   S4-2            0.000e+00   0.000e+00  -109.779  -110.304    -0.525     (0)  
   S6-2            0.000e+00   0.000e+00  -109.963  -110.356    -0.392     (0)  
   S-2             0.000e+00   0.000e+00  -112.483  -113.393    -0.909     (0)  
   S3-2            0.000e+00   0.000e+00  -113.125  -113.757    -0.632     (0)  
   S2-2            0.000e+00   0.000e+00  -114.257  -115.003    -0.745     (0)  
   Fe(HS)2         0.000e+00   0.000e+00  -199.934  -199.657     0.276     (0)  
   Cu(HS)3-        0.000e+00   0.000e+00  -286.648  -286.543     0.105     (0)  
   Fe(HS)3-        0.000e+00   0.000e+00  -300.174  -300.069     0.105     (0)  
S(6)          2.009e-04
   FeSO4+          1.558e-04   9.229e-05    -3.808    -4.035    -0.227     (0)  
   SO4-2           3.538e-05   3.380e-06    -4.451    -5.471    -1.020     (0)  
   HSO4-           6.135e-06   3.488e-06    -5.212    -5.457    -0.245     (0)  
   NaSO4-          2.585e-06   1.576e-06    -5.588    -5.802    -0.215     (0)  
   FeHSO4+2        1.001e-06   2.623e-06    -5.999    -5.581     0.418     (0)  
   FeSO4           6.205e-08   1.173e-07    -7.207    -6.931     0.276     (0)  
   FeHSO4+         6.431e-09   8.182e-09    -8.192    -8.087     0.105     (0)  
   Fe(SO4)2-       5.365e-09   6.825e-09    -8.270    -8.166     0.105     (0)  
   CuSO4           2.921e-09   5.521e-09    -8.534    -8.258     0.276     (0)  

------------------------------Saturation indices-------------------------------

  Phase               SI** log IAP   log K(298 K,   1 atm)

  Anilite         -94.63   -126.50  -31.88  Cu0.25Cu1.5S
  Antlerite       -21.25    -12.96    8.29  Cu3(OH)4SO4
  Atacamite       -11.64     -4.30    7.34  Cu2(OH)3Cl
  BlaubleiI       -84.20   -108.36  -24.16  Cu0.9Cu0.2S
  BlaubleiII      -89.46   -116.73  -27.28  Cu0.6Cu0.8S
  Brochantite     -29.50    -14.16   15.34  Cu4(OH)6SO4
  Chalcanthite     -8.05    -10.69   -2.64  CuSO4:5H2O
  Chalcocite      -98.86   -133.48  -34.62  Cu2S
  Chalcopyrite   -174.49   -209.76  -35.27  CuFeS2
  Covellite       -83.30   -105.57  -22.27  CuS
  Cu(OH)2          -9.84     -1.20    8.64  Cu(OH)2
  Cu2SO4          -36.53    -38.48   -1.95  Cu2SO4
  CuMetal         -21.87    -30.63   -8.76  Cu
  CuOCuSO4        -23.27    -11.74   11.53  CuO:CuSO4
  CupricFerrite    -0.49      5.39    5.88  CuFe2O4
  Cuprite         -27.53    -29.08   -1.55  Cu2O
  CuprousFerrite   -2.34    -11.26   -8.92  CuFeO2
  CuSO4           -13.58    -10.57    3.01  CuSO4
  Djurleite       -97.72   -131.64  -33.92  Cu0.066Cu1.868S
  Fe(OH)2.7Cl.3     5.71      2.67   -3.04  Fe(OH)2.7Cl0.3
  Fe(OH)3(a)       -1.64      3.25    4.89  Fe(OH)3
  Fe3(OH)8        -13.54      6.69   20.22  Fe3(OH)8
  FeS(ppt)       -100.27   -104.18   -3.92  FeS
  Goethite          4.27      3.27   -1.00  FeOOH
  Greigite       -365.78   -410.82  -45.03  Fe3S4
  H2(g)           -32.20    -35.35   -3.15  H2
  H2O(g)           -1.53     -0.02    1.51  H2O
  H2S(g)          -96.48    -97.48   -1.00  H2S
  Halite           -2.58     -0.99    1.58  NaCl
  Hematite         10.57      6.57   -4.01  Fe2O3
  Jarosite-Na      -2.80     -8.08   -5.28  NaFe3(SO4)2(OH)6
  JarositeH        -3.66     -9.05   -5.39  (H3O)Fe3(SO4)2(OH)6
  Langite         -30.97    -14.18   16.79  Cu4(OH)6SO4:H2O
  Mackinawite     -99.54   -104.18   -4.65  FeS
  Maghemite         0.18      6.57    6.39  Fe2O3
  Magnetite         3.04      6.78    3.74  Fe3O4
  Melanothallite   -8.75     -5.02    3.73  CuCl2
  Melanterite      -7.14     -9.35   -2.21  FeSO4:7H2O
  Mirabilite       -6.66     -7.77   -1.11  Na2SO4:10H2O
  Nantokite        -9.70    -16.46   -6.76  CuCl
  O2(g)           -18.83    -21.73   -2.89  O2
  Pyrite         -157.93   -176.41  -18.48  FeS2
  Sulfur          -70.11    -85.14  -15.03  S
  Tenorite         -8.79     -1.17    7.62  CuO
  Thenardite       -7.35     -7.53   -0.18  Na2SO4

**For a gas, SI = log10(fugacity). Fugacity = pressure * phi / 1 atm.
  For ideal gases, phi = 1.

Reaction step 5.

Using solution 1.	
Using pure phase assemblage 1.	
Using kinetics 1.	

Kinetics 1.	

	Time step: 5184 seconds  (Incremented time: 25920 seconds)

	Rate name       Delta Moles Total Moles   Reactant        Coefficient

	Chalcopyrite     -2.675e-05   8.085e-02   Cu+2                      1
	                                          Fe+2                      5
	                                          Fe+3                     -4
	                                          Sulfur                    2

-------------------------------Phase assemblage--------------------------------

                                                      Moles in assemblage
Phase               SI  log IAP  log K(T, P)   Initial       Final       Delta

Pyrite         -156.07  -174.55    -18.48    0.000e+00           0   0.000e+00
Sulfur          -69.34   -84.37    -15.03    0.000e+00           0   0.000e+00

-----------------------------Solution composition------------------------------

	Elements           Molality       Moles

	Cl                3.305e+00   3.305e+00
	Cu                1.272e-04   1.272e-04
	Fe                1.066e+00   1.066e+00
	Na                1.066e-01   1.066e-01
	S                 2.544e-04   2.544e-04

----------------------------Description of solution----------------------------

                                       pH  =   1.967      Charge balance
                                       pe  =  14.023      Adjusted to redox equilibrium
                        Activity of water  =   0.947
                 Ionic strength (mol/kgw)  =   2.765e+00
                       Mass of water (kg)  =   1.000e+00
                 Total alkalinity (eq/kg)  =  -2.131e+00
                         Temperature (°C)  =  25.00
                  Electrical balance (eq)  =  -2.503e-09
 Percent error, 100*(Cat-|An|)/(Cat+|An|)  =  -0.00
                               Iterations  =  23 (61 overall)
                                  Total H  = 1.110389e+02
                                  Total O  = 5.551874e+01

----------------------------Distribution of species----------------------------

                                               Log       Log       Log    mole V
   Species          Molality    Activity  Molality  Activity     Gamma   cm³/mol

   H+              1.500e-02   1.078e-02    -1.824    -1.967    -0.143      0.00
   OH-             1.719e-12   8.792e-13   -11.765   -12.056    -0.291     (0)  
   H2O             5.551e+01   9.468e-01     1.744    -0.024     0.000     18.07
Cl            3.305e+00
   Cl-             1.940e+00   1.092e+00     0.288     0.038    -0.250     (0)  
   FeCl+2          6.658e-01   8.206e-02    -0.177    -1.086    -0.909     (0)  
   FeCl2+          3.145e-01   4.002e-01    -0.502    -0.398     0.105     (0)  
   FeCl3           2.311e-02   4.368e-02    -1.636    -1.360     0.277     (0)  
   FeCl+           6.284e-04   3.723e-04    -3.202    -3.429    -0.227     (0)  
   CuCl+           5.495e-05   2.976e-05    -4.260    -4.526    -0.266     (0)  
   CuCl2           9.232e-06   1.745e-05    -5.035    -4.758     0.277     (0)  
   CuCl3-          1.248e-07   6.759e-08    -6.904    -7.170    -0.266     (0)  
   CuCl4-2         3.000e-09   3.698e-10    -8.523    -9.432    -0.909     (0)  
   CuCl3-2         2.666e-10   3.286e-11    -9.574   -10.483    -0.909     (0)  
   CuCl2-          3.506e-11   1.899e-11   -10.455   -10.721    -0.266     (0)  
Cu(1)         3.016e-10
   CuCl3-2         2.666e-10   3.286e-11    -9.574   -10.483    -0.909     (0)  
   CuCl2-          3.506e-11   1.899e-11   -10.455   -10.721    -0.266     (0)  
   Cu+             1.150e-16   5.039e-17   -15.939   -16.298    -0.359     (0)  
Cu(2)         1.272e-04
   Cu+2            6.291e-05   1.013e-05    -4.201    -4.994    -0.793     (0)  
   CuCl+           5.495e-05   2.976e-05    -4.260    -4.526    -0.266     (0)  
   CuCl2           9.232e-06   1.745e-05    -5.035    -4.758     0.277     (0)  
   CuCl3-          1.248e-07   6.759e-08    -6.904    -7.170    -0.266     (0)  
   CuSO4           4.681e-09   8.849e-09    -8.330    -8.053     0.277     (0)  
   CuCl4-2         3.000e-09   3.698e-10    -8.523    -9.432    -0.909     (0)  
   CuOH+           1.642e-11   8.896e-12   -10.785   -11.051    -0.266     (0)  
   Cu(OH)2         8.636e-16   1.632e-15   -15.064   -14.787     0.277     (0)  
   Cu2(OH)2+2      1.322e-17   3.463e-17   -16.879   -16.461     0.418     (0)  
   Cu(OH)3-        6.789e-27   8.638e-27   -26.168   -26.064     0.105     (0)  
   Cu(OH)4-2       5.777e-38   1.514e-37   -37.238   -36.820     0.418     (0)  
   Cu(HS)3-        0.000e+00   0.000e+00  -283.589  -283.485     0.105     (0)  
Fe(2)         2.163e-03
   Fe+2            1.534e-03   2.471e-04    -2.814    -3.607    -0.793     (0)  
   FeCl+           6.284e-04   3.723e-04    -3.202    -3.429    -0.227     (0)  
   FeSO4           9.945e-08   1.880e-07    -7.002    -6.726     0.277     (0)  
   FeHSO4+         1.047e-08   1.332e-08    -7.980    -7.875     0.105     (0)  
   FeOH+           1.158e-11   6.861e-12   -10.936   -11.164    -0.227     (0)  
   Fe(OH)2         2.713e-21   5.129e-21   -20.566   -20.290     0.277     (0)  
   Fe(OH)3-        2.824e-29   1.673e-29   -28.549   -28.776    -0.227     (0)  
   Fe(HS)2         0.000e+00   0.000e+00  -197.860  -197.584     0.277     (0)  
   Fe(HS)3-        0.000e+00   0.000e+00  -297.115  -297.010     0.105     (0)  
Fe(3)         1.064e+00
   FeCl+2          6.658e-01   8.206e-02    -0.177    -1.086    -0.909     (0)  
   FeCl2+          3.145e-01   4.002e-01    -0.502    -0.398     0.105     (0)  
   Fe+3            4.856e-02   2.489e-03    -1.314    -2.604    -1.290     (0)  
   FeCl3           2.311e-02   4.368e-02    -1.636    -1.360     0.277     (0)  
   FeOH+2          1.145e-02   1.411e-03    -1.941    -2.850    -0.909     (0)  
   FeSO4+          1.971e-04   1.168e-04    -3.705    -3.933    -0.227     (0)  
   Fe(OH)2+        6.729e-05   4.104e-05    -4.172    -4.387    -0.215     (0)  
   FeHSO4+2        1.287e-06   3.371e-06    -5.891    -5.472     0.418     (0)  
   Fe2(OH)2+4      1.138e-06   5.362e-05    -5.944    -4.271     1.673     (0)  
   Fe(SO4)2-       8.591e-09   1.093e-08    -8.066    -7.961     0.105     (0)  
   Fe3(OH)4+5      1.117e-09   4.598e-07    -8.952    -6.337     2.614     (0)  
   Fe(OH)3         2.457e-10   4.644e-10    -9.610    -9.333     0.277     (0)  
   Fe(OH)4-        6.098e-17   3.719e-17   -16.215   -16.430    -0.215     (0)  
H(0)          7.823e-36
   H2              3.912e-36   7.394e-36   -35.408   -35.131     0.277     (0)  
Na            1.066e-01
   Na+             1.066e-01   9.305e-02    -0.972    -1.031    -0.059     (0)  
   NaSO4-          3.272e-06   1.995e-06    -5.485    -5.700    -0.215     (0)  
O(0)          7.234e-23
   O2              3.617e-23   6.837e-23   -22.442   -22.165     0.277     (0)  
S(-2)         0.000e+00
   H2S             0.000e+00   0.000e+00   -96.766   -96.489     0.277     (0)  
   HS-             0.000e+00   0.000e+00  -101.172  -101.463    -0.291     (0)  
   S5-2            0.000e+00   0.000e+00  -108.642  -109.091    -0.449     (0)  
   S4-2            0.000e+00   0.000e+00  -108.800  -109.325    -0.525     (0)  
   S6-2            0.000e+00   0.000e+00  -108.985  -109.377    -0.392     (0)  
   S-2             0.000e+00   0.000e+00  -111.505  -112.414    -0.909     (0)  
   S3-2            0.000e+00   0.000e+00  -112.146  -112.778    -0.632     (0)  
   S2-2            0.000e+00   0.000e+00  -113.279  -114.024    -0.745     (0)  
   Fe(HS)2         0.000e+00   0.000e+00  -197.860  -197.584     0.277     (0)  
   Cu(HS)3-        0.000e+00   0.000e+00  -283.589  -283.485     0.105     (0)  
   Fe(HS)3-        0.000e+00   0.000e+00  -297.115  -297.010     0.105     (0)  
S(6)          2.544e-04
   FeSO4+          1.971e-04   1.168e-04    -3.705    -3.933    -0.227     (0)  
   SO4-2           4.478e-05   4.278e-06    -4.349    -5.369    -1.020     (0)  
   HSO4-           7.888e-06   4.485e-06    -5.103    -5.348    -0.245     (0)  
   NaSO4-          3.272e-06   1.995e-06    -5.485    -5.700    -0.215     (0)  
   FeHSO4+2        1.287e-06   3.371e-06    -5.891    -5.472     0.418     (0)  
   FeSO4           9.945e-08   1.880e-07    -7.002    -6.726     0.277     (0)  
   FeHSO4+         1.047e-08   1.332e-08    -7.980    -7.875     0.105     (0)  
   Fe(SO4)2-       8.591e-09   1.093e-08    -8.066    -7.961     0.105     (0)  
   CuSO4           4.681e-09   8.849e-09    -8.330    -8.053     0.277     (0)  

------------------------------Saturation indices-------------------------------

  Phase               SI** log IAP   log K(298 K,   1 atm)

  Anilite         -93.31   -125.19  -31.88  Cu0.25Cu1.5S
  Antlerite       -20.87    -12.58    8.29  Cu3(OH)4SO4
  Atacamite       -11.46     -4.12    7.34  Cu2(OH)3Cl
  BlaubleiI       -83.09   -107.25  -24.16  Cu0.9Cu0.2S
  BlaubleiII      -88.25   -115.53  -27.28  Cu0.6Cu0.8S
  Brochantite     -29.02    -13.68   15.34  Cu4(OH)6SO4
  Chalcanthite     -7.84    -10.48   -2.64  CuSO4:5H2O
  Chalcocite      -97.47   -132.09  -34.62  Cu2S
  Chalcopyrite   -172.32   -207.59  -35.27  CuFeS2
  Covellite       -82.22   -104.49  -22.27  CuS
  Cu(OH)2          -9.75     -1.11    8.64  Cu(OH)2
  Cu2SO4          -36.01    -37.96   -1.95  Cu2SO4
  CuMetal         -21.56    -30.32   -8.76  Cu
  CuOCuSO4        -22.98    -11.45   11.53  CuO:CuSO4
  CupricFerrite    -0.44      5.44    5.88  CuFe2O4
  Cuprite         -27.13    -28.68   -1.55  Cu2O
  CuprousFerrite   -2.16    -11.08   -8.92  CuFeO2
  CuSO4           -13.37    -10.36    3.01  CuSO4
  Djurleite       -96.35   -130.27  -33.92  Cu0.066Cu1.868S
  Fe(OH)2.7Cl.3     5.70      2.66   -3.04  Fe(OH)2.7Cl0.3
  Fe(OH)3(a)       -1.66      3.23    4.89  Fe(OH)3
  Fe3(OH)8        -13.49      6.73   20.22  Fe3(OH)8
  FeS(ppt)        -99.19   -103.10   -3.92  FeS
  Goethite          4.25      3.25   -1.00  FeOOH
  Greigite       -361.76   -406.80  -45.03  Fe3S4
  H2(g)           -31.98    -35.13   -3.15  H2
  H2O(g)           -1.53     -0.02    1.51  H2O
  H2S(g)          -95.49    -96.49   -1.00  H2S
  Halite           -2.58     -0.99    1.58  NaCl
  Hematite         10.53      6.52   -4.01  Fe2O3
  Jarosite-Na      -2.64     -7.92   -5.28  NaFe3(SO4)2(OH)6
  JarositeH        -3.49     -8.88   -5.39  (H3O)Fe3(SO4)2(OH)6
  Langite         -30.50    -13.71   16.79  Cu4(OH)6SO4:H2O
  Mackinawite     -98.46   -103.10   -4.65  FeS
  Maghemite         0.14      6.52    6.39  Fe2O3
  Magnetite         3.09      6.83    3.74  Fe3O4
  Melanothallite   -8.65     -4.92    3.73  CuCl2
  Melanterite      -6.93     -9.14   -2.21  FeSO4:7H2O
  Mirabilite       -6.55     -7.67   -1.11  Na2SO4:10H2O
  Nantokite        -9.50    -16.26   -6.76  CuCl
  O2(g)           -19.27    -22.17   -2.89  O2
  Pyrite         -156.07   -174.55  -18.48  FeS2
  Sulfur          -69.34    -84.37  -15.03  S
  Tenorite         -8.70     -1.08    7.62  CuO
  Thenardite       -7.25     -7.43   -0.18  Na2SO4

**For a gas, SI = log10(fugacity). Fugacity = pressure * phi / 1 atm.
  For ideal gases, phi = 1.

Reaction step 6.

Using solution 1.	
Using pure phase assemblage 1.	
Using kinetics 1.	

Kinetics 1.	

	Time step: 5184 seconds  (Incremented time: 31104 seconds)

	Rate name       Delta Moles Total Moles   Reactant        Coefficient

	Chalcopyrite     -2.747e-05   8.083e-02   Cu+2                      1
	                                          Fe+2                      5
	                                          Fe+3                     -4
	                                          Sulfur                    2

-------------------------------Phase assemblage--------------------------------

                                                      Moles in assemblage
Phase               SI  log IAP  log K(T, P)   Initial       Final       Delta

Pyrite         -154.52  -173.00    -18.48    0.000e+00           0   0.000e+00
Sulfur          -68.69   -83.72    -15.03    0.000e+00           0   0.000e+00

-----------------------------Solution composition------------------------------

	Elements           Molality       Moles

	Cl                3.305e+00   3.305e+00
	Cu                1.547e-04   1.547e-04
	Fe                1.066e+00   1.066e+00
	Na                1.066e-01   1.066e-01
	S                 3.094e-04   3.094e-04

----------------------------Description of solution----------------------------

                                       pH  =   1.960      Charge balance
                                       pe  =  13.938      Adjusted to redox equilibrium
                        Activity of water  =   0.947
                 Ionic strength (mol/kgw)  =   2.765e+00
                       Mass of water (kg)  =   1.000e+00
                 Total alkalinity (eq/kg)  =  -2.130e+00
                         Temperature (°C)  =  25.00
                  Electrical balance (eq)  =  -2.502e-09
 Percent error, 100*(Cat-|An|)/(Cat+|An|)  =  -0.00
                               Iterations  =  23 (61 overall)
                                  Total H  = 1.110389e+02
                                  Total O  = 5.551874e+01

----------------------------Distribution of species----------------------------

                                               Log       Log       Log    mole V
   Species          Molality    Activity  Molality  Activity     Gamma   cm³/mol

   H+              1.524e-02   1.096e-02    -1.817    -1.960    -0.143      0.00
   OH-             1.692e-12   8.650e-13   -11.772   -12.063    -0.291     (0)  
   H2O             5.551e+01   9.468e-01     1.744    -0.024     0.000     18.07
Cl            3.305e+00
   Cl-             1.941e+00   1.092e+00     0.288     0.038    -0.250     (0)  
   FeCl+2          6.656e-01   8.204e-02    -0.177    -1.086    -0.909     (0)  
   FeCl2+          3.145e-01   4.001e-01    -0.502    -0.398     0.105     (0)  
   FeCl3           2.311e-02   4.368e-02    -1.636    -1.360     0.277     (0)  
   FeCl+           7.641e-04   4.527e-04    -3.117    -3.344    -0.227     (0)  
   CuCl+           6.682e-05   3.619e-05    -4.175    -4.441    -0.266     (0)  
   CuCl2           1.123e-05   2.122e-05    -4.950    -4.673     0.277     (0)  
   CuCl3-          1.518e-07   8.220e-08    -6.819    -7.085    -0.266     (0)  
   CuCl4-2         3.649e-09   4.498e-10    -8.438    -9.347    -0.909     (0)  
   CuCl3-2         3.944e-10   4.861e-11    -9.404   -10.313    -0.909     (0)  
   CuCl2-          5.186e-11   2.809e-11   -10.285   -10.551    -0.266     (0)  
Cu(1)         4.462e-10
   CuCl3-2         3.944e-10   4.861e-11    -9.404   -10.313    -0.909     (0)  
   CuCl2-          5.186e-11   2.809e-11   -10.285   -10.551    -0.266     (0)  
   Cu+             1.701e-16   7.452e-17   -15.769   -16.128    -0.359     (0)  
Cu(2)         1.547e-04
   Cu+2            7.648e-05   1.232e-05    -4.116    -4.910    -0.793     (0)  
   CuCl+           6.682e-05   3.619e-05    -4.175    -4.441    -0.266     (0)  
   CuCl2           1.123e-05   2.122e-05    -4.950    -4.673     0.277     (0)  
   CuCl3-          1.518e-07   8.220e-08    -6.819    -7.085    -0.266     (0)  
   CuSO4           6.918e-09   1.308e-08    -8.160    -7.883     0.277     (0)  
   CuCl4-2         3.649e-09   4.498e-10    -8.438    -9.347    -0.909     (0)  
   CuOH+           1.965e-11   1.064e-11   -10.707   -10.973    -0.266     (0)  
   Cu(OH)2         1.016e-15   1.921e-15   -14.993   -14.716     0.277     (0)  
   Cu2(OH)2+2      1.891e-17   4.956e-17   -16.723   -16.305     0.418     (0)  
   Cu(OH)3-        7.863e-27   1.000e-26   -26.104   -26.000     0.105     (0)  
   Cu(OH)4-2       6.582e-38   1.725e-37   -37.182   -36.763     0.418     (0)  
   Cu(HS)3-        0.000e+00   0.000e+00  -281.019  -280.914     0.105     (0)  
Fe(2)         2.630e-03
   Fe+2            1.866e-03   3.004e-04    -2.729    -3.522    -0.793     (0)  
   FeCl+           7.641e-04   4.527e-04    -3.117    -3.344    -0.227     (0)  
   FeSO4           1.470e-07   2.778e-07    -6.833    -6.556     0.277     (0)  
   FeHSO4+         1.573e-08   2.001e-08    -7.803    -7.699     0.105     (0)  
   FeOH+           1.385e-11   8.209e-12   -10.858   -11.086    -0.227     (0)  
   Fe(OH)2         3.194e-21   6.037e-21   -20.496   -20.219     0.277     (0)  
   Fe(OH)3-        3.271e-29   1.938e-29   -28.485   -28.713    -0.227     (0)  
   Fe(HS)2         0.000e+00   0.000e+00  -196.119  -195.842     0.277     (0)  
   Fe(HS)3-        0.000e+00   0.000e+00  -294.544  -294.440     0.105     (0)  
Fe(3)         1.063e+00
   FeCl+2          6.656e-01   8.204e-02    -0.177    -1.086    -0.909     (0)  
   FeCl2+          3.145e-01   4.001e-01    -0.502    -0.398     0.105     (0)  
   Fe+3            4.854e-02   2.488e-03    -1.314    -2.604    -1.290     (0)  
   FeCl3           2.311e-02   4.368e-02    -1.636    -1.360     0.277     (0)  
   FeOH+2          1.126e-02   1.388e-03    -1.948    -2.858    -0.909     (0)  
   FeSO4+          2.394e-04   1.419e-04    -3.621    -3.848    -0.227     (0)  
   Fe(OH)2+        6.512e-05   3.972e-05    -4.186    -4.401    -0.215     (0)  
   FeHSO4+2        1.589e-06   4.163e-06    -5.799    -5.381     0.418     (0)  
   Fe2(OH)2+4      1.100e-06   5.187e-05    -5.959    -4.285     1.674     (0)  
   Fe(SO4)2-       1.269e-08   1.614e-08    -7.897    -7.792     0.105     (0)  
   Fe3(OH)4+5      1.045e-09   4.304e-07    -8.981    -6.366     2.615     (0)  
   Fe(OH)3         2.339e-10   4.422e-10    -9.631    -9.354     0.277     (0)  
   Fe(OH)4-        5.713e-17   3.485e-17   -16.243   -16.458    -0.215     (0)  
H(0)          1.196e-35
   H2              5.978e-36   1.130e-35   -35.223   -34.947     0.277     (0)  
Na            1.066e-01
   Na+             1.066e-01   9.306e-02    -0.972    -1.031    -0.059     (0)  
   NaSO4-          3.977e-06   2.425e-06    -5.400    -5.615    -0.215     (0)  
O(0)          3.097e-23
   O2              1.549e-23   2.927e-23   -22.810   -22.534     0.277     (0)  
S(-2)         0.000e+00
   H2S             0.000e+00   0.000e+00   -95.930   -95.653     0.277     (0)  
   HS-             0.000e+00   0.000e+00  -100.344  -100.635    -0.291     (0)  
   S5-2            0.000e+00   0.000e+00  -107.821  -108.270    -0.449     (0)  
   S4-2            0.000e+00   0.000e+00  -107.979  -108.504    -0.525     (0)  
   S6-2            0.000e+00   0.000e+00  -108.163  -108.556    -0.392     (0)  
   S-2             0.000e+00   0.000e+00  -110.683  -111.593    -0.909     (0)  
   S3-2            0.000e+00   0.000e+00  -111.325  -111.957    -0.632     (0)  
   S2-2            0.000e+00   0.000e+00  -112.457  -113.203    -0.745     (0)  
   Fe(HS)2         0.000e+00   0.000e+00  -196.119  -195.842     0.277     (0)  
   Cu(HS)3-        0.000e+00   0.000e+00  -281.019  -280.914     0.105     (0)  
   Fe(HS)3-        0.000e+00   0.000e+00  -294.544  -294.440     0.105     (0)  
S(6)          3.094e-04
   FeSO4+          2.394e-04   1.419e-04    -3.621    -3.848    -0.227     (0)  
   SO4-2           5.443e-05   5.200e-06    -4.264    -5.284    -1.020     (0)  
   HSO4-           9.744e-06   5.540e-06    -5.011    -5.256    -0.245     (0)  
   NaSO4-          3.977e-06   2.425e-06    -5.400    -5.615    -0.215     (0)  
   FeHSO4+2        1.589e-06   4.163e-06    -5.799    -5.381     0.418     (0)  
   FeSO4           1.470e-07   2.778e-07    -6.833    -6.556     0.277     (0)  
   FeHSO4+         1.573e-08   2.001e-08    -7.803    -7.699     0.105     (0)  
   Fe(SO4)2-       1.269e-08   1.614e-08    -7.897    -7.792     0.105     (0)  
   CuSO4           6.918e-09   1.308e-08    -8.160    -7.883     0.277     (0)  

------------------------------Saturation indices-------------------------------

  Phase               SI** log IAP   log K(298 K,   1 atm)

  Anilite         -92.22   -124.09  -31.88  Cu0.25Cu1.5S
  Antlerite       -20.56    -12.27    8.29  Cu3(OH)4SO4
  Atacamite       -11.31     -3.97    7.34  Cu2(OH)3Cl
  BlaubleiI       -82.16   -106.32  -24.16  Cu0.9Cu0.2S
  BlaubleiII      -87.24   -114.52  -27.28  Cu0.6Cu0.8S
  Brochantite     -28.64    -13.30   15.34  Cu4(OH)6SO4
  Chalcanthite     -7.67    -10.31   -2.64  CuSO4:5H2O
  Chalcocite      -96.31   -130.93  -34.62  Cu2S
  Chalcopyrite   -170.51   -205.78  -35.27  CuFeS2
  Covellite       -81.31   -103.58  -22.27  CuS
  Cu(OH)2          -9.68     -1.04    8.64  Cu(OH)2
  Cu2SO4          -35.59    -37.54   -1.95  Cu2SO4
  CuMetal         -21.31    -30.07   -8.76  Cu
  CuOCuSO4        -22.74    -11.21   11.53  CuO:CuSO4
  CupricFerrite    -0.41      5.47    5.88  CuFe2O4
  Cuprite         -26.81    -28.36   -1.55  Cu2O
  CuprousFerrite   -2.02    -10.94   -8.92  CuFeO2
  CuSO4           -13.20    -10.19    3.01  CuSO4
  Djurleite       -95.21   -129.13  -33.92  Cu0.066Cu1.868S
  Fe(OH)2.7Cl.3     5.68      2.64   -3.04  Fe(OH)2.7Cl0.3
  Fe(OH)3(a)       -1.69      3.21    4.89  Fe(OH)3
  Fe3(OH)8        -13.46      6.76   20.22  Fe3(OH)8
  FeS(ppt)        -98.28   -102.20   -3.92  FeS
  Goethite          4.23      3.23   -1.00  FeOOH
  Greigite       -358.39   -403.43  -45.03  Fe3S4
  H2(g)           -31.80    -34.95   -3.15  H2
  H2O(g)           -1.53     -0.02    1.51  H2O
  H2S(g)          -94.66    -95.65   -1.00  H2S
  Halite           -2.58     -0.99    1.58  NaCl
  Hematite         10.49      6.48   -4.01  Fe2O3
  Jarosite-Na      -2.51     -7.79   -5.28  NaFe3(SO4)2(OH)6
  JarositeH        -3.35     -8.74   -5.39  (H3O)Fe3(SO4)2(OH)6
  Langite         -30.12    -13.33   16.79  Cu4(OH)6SO4:H2O
  Mackinawite     -97.55   -102.20   -4.65  FeS
  Maghemite         0.10      6.48    6.39  Fe2O3
  Magnetite         3.12      6.86    3.74  Fe3O4
  Melanothallite   -8.56     -4.83    3.73  CuCl2
  Melanterite      -6.76     -8.97   -2.21  FeSO4:7H2O
  Mirabilite       -6.47     -7.58   -1.11  Na2SO4:10H2O
  Nantokite        -9.33    -16.09   -6.76  CuCl
  O2(g)           -19.64    -22.53   -2.89  O2
  Pyrite         -154.52   -173.00  -18.48  FeS2
  Sulfur          -68.69    -83.72  -15.03  S
  Tenorite         -8.63     -1.01    7.62  CuO
  Thenardite       -7.17     -7.35   -0.18  Na2SO4

**For a gas, SI = log10(fugacity). Fugacity = pressure * phi / 1 atm.
  For ideal gases, phi = 1.

Reaction step 7.

Using solution 1.	
Using pure phase assemblage 1.	
Using kinetics 1.	

Kinetics 1.	

	Time step: 5184 seconds  (Incremented time: 36288 seconds)

	Rate name       Delta Moles Total Moles   Reactant        Coefficient

	Chalcopyrite     -2.823e-05   8.080e-02   Cu+2                      1
	                                          Fe+2                      5
	                                          Fe+3                     -4
	                                          Sulfur                    2

-------------------------------Phase assemblage--------------------------------

                                                      Moles in assemblage
Phase               SI  log IAP  log K(T, P)   Initial       Final       Delta

Pyrite         -153.16  -171.64    -18.48    0.000e+00           0   0.000e+00
Sulfur          -68.12   -83.15    -15.03    0.000e+00           0   0.000e+00

-----------------------------Solution composition------------------------------

	Elements           Molality       Moles

	Cl                3.305e+00   3.305e+00
	Cu                1.829e-04   1.829e-04
	Fe                1.066e+00   1.066e+00
	Na                1.066e-01   1.066e-01
	S                 3.658e-04   3.658e-04

----------------------------Description of solution----------------------------

                                       pH  =   1.953      Charge balance
                                       pe  =  13.865      Adjusted to redox equilibrium
                        Activity of water  =   0.947
                 Ionic strength (mol/kgw)  =   2.765e+00
                       Mass of water (kg)  =   1.000e+00
                 Total alkalinity (eq/kg)  =  -2.130e+00
                         Temperature (°C)  =  25.00
                  Electrical balance (eq)  =  -2.468e-09
 Percent error, 100*(Cat-|An|)/(Cat+|An|)  =  -0.00
                               Iterations  =  26 (69 overall)
                                  Total H  = 1.110389e+02
                                  Total O  = 5.551874e+01

----------------------------Distribution of species----------------------------

                                               Log       Log       Log    mole V
   Species          Molality    Activity  Molality  Activity     Gamma   cm³/mol

   H+              1.550e-02   1.114e-02    -1.810    -1.953    -0.143      0.00
   OH-             1.664e-12   8.508e-13   -11.779   -12.070    -0.291     (0)  
   H2O             5.551e+01   9.468e-01     1.744    -0.024     0.000     18.07
Cl            3.305e+00
   Cl-             1.941e+00   1.092e+00     0.288     0.038    -0.250     (0)  
   FeCl+2          6.654e-01   8.201e-02    -0.177    -1.086    -0.909     (0)  
   FeCl2+          3.144e-01   4.000e-01    -0.503    -0.398     0.105     (0)  
   FeCl3           2.311e-02   4.368e-02    -1.636    -1.360     0.277     (0)  
   FeCl+           9.036e-04   5.354e-04    -3.044    -3.271    -0.227     (0)  
   CuCl+           7.902e-05   4.280e-05    -4.102    -4.369    -0.266     (0)  
   CuCl2           1.328e-05   2.510e-05    -4.877    -4.600     0.277     (0)  
   CuCl3-          1.795e-07   9.723e-08    -6.746    -7.012    -0.266     (0)  
   CuCl4-2         4.317e-09   5.321e-10    -8.365    -9.274    -0.909     (0)  
   CuCl3-2         5.518e-10   6.801e-11    -9.258   -10.167    -0.909     (0)  
   CuCl2-          7.256e-11   3.930e-11   -10.139   -10.406    -0.266     (0)  
Cu(1)         6.244e-10
   CuCl3-2         5.518e-10   6.801e-11    -9.258   -10.167    -0.909     (0)  
   CuCl2-          7.256e-11   3.930e-11   -10.139   -10.406    -0.266     (0)  
   Cu+             2.380e-16   1.042e-16   -15.623   -15.982    -0.359     (0)  
Cu(2)         1.829e-04
   Cu+2            9.044e-05   1.456e-05    -4.044    -4.837    -0.793     (0)  
   CuCl+           7.902e-05   4.280e-05    -4.102    -4.369    -0.266     (0)  
   CuCl2           1.328e-05   2.510e-05    -4.877    -4.600     0.277     (0)  
   CuCl3-          1.795e-07   9.723e-08    -6.746    -7.012    -0.266     (0)  
   CuSO4           9.669e-09   1.828e-08    -8.015    -7.738     0.277     (0)  
   CuCl4-2         4.317e-09   5.321e-10    -8.365    -9.274    -0.909     (0)  
   CuOH+           2.285e-11   1.238e-11   -10.641   -10.907    -0.266     (0)  
   Cu(OH)2         1.163e-15   2.198e-15   -14.935   -14.658     0.277     (0)  
   Cu2(OH)2+2      2.557e-17   6.703e-17   -16.592   -16.174     0.418     (0)  
   Cu(OH)3-        8.845e-27   1.125e-26   -26.053   -25.949     0.105     (0)  
   Cu(OH)4-2       7.281e-38   1.908e-37   -37.138   -36.719     0.418     (0)  
   Cu(HS)3-        0.000e+00   0.000e+00  -278.782  -278.678     0.105     (0)  
Fe(2)         3.110e-03
   Fe+2            2.206e-03   3.552e-04    -2.656    -3.450    -0.793     (0)  
   FeCl+           9.036e-04   5.354e-04    -3.044    -3.271    -0.227     (0)  
   FeSO4           2.054e-07   3.883e-07    -6.687    -6.411     0.277     (0)  
   FeHSO4+         2.235e-08   2.843e-08    -7.651    -7.546     0.105     (0)  
[...]
   CuCl3-2         6.591e-02   7.471e-03    -1.181    -2.127    -0.946     (0)  
   CuCl2-          5.821e-03   3.063e-03    -2.235    -2.514    -0.279     (0)  
   CuCl+           1.916e-05   1.008e-05    -4.718    -4.996    -0.279     (0)  
   CuCl2           3.499e-06   8.332e-06    -5.456    -5.079     0.377     (0)  
   FeCl+2          1.315e-06   1.491e-07    -5.881    -6.827    -0.946     (0)  
   FeCl2+          5.896e-07   1.025e-06    -6.229    -5.989     0.240     (0)  
   CuCl3-          8.646e-08   4.550e-08    -7.063    -7.342    -0.279     (0)  
   FeCl3           6.621e-08   1.577e-07    -7.179    -6.802     0.377     (0)  
   CuCl4-2         3.096e-09   3.509e-10    -8.509    -9.455    -0.946     (0)  
Cu(1)         7.173e-02
   CuCl3-2         6.591e-02   7.471e-03    -1.181    -2.127    -0.946     (0)  
   CuCl2-          5.821e-03   3.063e-03    -2.235    -2.514    -0.279     (0)  
   Cu+             9.848e-09   4.090e-09    -8.007    -8.388    -0.382     (0)  
Cu(2)         3.900e-05
   CuCl+           1.916e-05   1.008e-05    -4.718    -4.996    -0.279     (0)  
   Cu+2            1.610e-05   2.434e-06    -4.793    -5.614    -0.821     (0)  
   CuCl2           3.499e-06   8.332e-06    -5.456    -5.079     0.377     (0)  
   CuSO4           1.485e-07   3.536e-07    -6.828    -6.451     0.377     (0)  
   CuCl3-          8.646e-08   4.550e-08    -7.063    -7.342    -0.279     (0)  
   CuCl4-2         3.096e-09   3.509e-10    -8.509    -9.455    -0.946     (0)  
   CuOH+           5.792e-14   3.048e-14   -13.237   -13.516    -0.279     (0)  
   Cu(OH)2         3.348e-20   7.973e-20   -19.475   -19.098     0.377     (0)  
   Cu2(OH)2+2      4.456e-23   4.064e-22   -22.351   -21.391     0.960     (0)  
   Cu(HS)3-        3.994e-24   6.940e-24   -23.399   -23.159     0.240     (0)  
   Cu(OH)3-        3.462e-33   6.016e-33   -32.461   -32.221     0.240     (0)  
   Cu(OH)4-2       0.000e+00   0.000e+00   -45.783   -44.823     0.960     (0)  
Fe(2)         1.148e+00
   Fe+2            7.114e-01   1.075e-01    -0.148    -0.968    -0.821     (0)  
   FeCl+           3.937e-01   2.284e-01    -0.405    -0.641    -0.236     (0)  
   FeHSO4+         3.748e-02   6.513e-02    -1.426    -1.186     0.240     (0)  
   FeSO4           5.713e-03   1.361e-02    -2.243    -1.866     0.377     (0)  
   FeOH+           7.338e-11   4.258e-11   -10.134   -10.371    -0.236     (0)  
   Fe(HS)2         4.379e-22   1.043e-21   -21.359   -20.982     0.377     (0)  
   Fe(OH)2         1.905e-22   4.538e-22   -21.720   -21.343     0.377     (0)  
   Fe(OH)3-        3.638e-32   2.111e-32   -31.439   -31.675    -0.236     (0)  
   Fe(HS)3-        2.156e-34   3.746e-34   -33.666   -33.426     0.240     (0)  
Fe(3)         2.087e-06
   FeCl+2          1.315e-06   1.491e-07    -5.881    -6.827    -0.946     (0)  
   FeCl2+          5.896e-07   1.025e-06    -6.229    -5.989     0.240     (0)  
   Fe+3            6.736e-08   3.207e-09    -7.172    -8.494    -1.322     (0)  
   FeCl3           6.621e-08   1.577e-07    -7.179    -6.802     0.377     (0)  
   FeSO4+          4.313e-08   2.503e-08    -7.365    -7.602    -0.236     (0)  
   FeHSO4+2        5.350e-09   4.880e-08    -8.272    -7.312     0.960     (0)  
   FeOH+2          2.287e-10   2.593e-11    -9.641   -10.586    -0.946     (0)  
   Fe(SO4)2-       2.242e-10   3.896e-10    -9.649    -9.409     0.240     (0)  
   Fe(OH)2+        1.796e-14   1.075e-14   -13.746   -13.969    -0.223     (0)  
   Fe(OH)3         7.282e-22   1.734e-21   -21.138   -20.761     0.377     (0)  
   Fe2(OH)2+4      2.614e-24   1.810e-20   -23.583   -19.742     3.840     (0)  
   Fe(OH)4-        3.308e-30   1.981e-30   -29.480   -29.703    -0.223     (0)  
   Fe3(OH)4+5      4.061e-38   4.065e-32   -37.391   -31.391     6.000     (0)  
H(0)          3.232e-15
   H2              1.616e-15   3.849e-15   -14.792   -14.415     0.377     (0)  
Na            1.077e-01
   Na+             1.070e-01   1.080e-01    -0.971    -0.967     0.004     (0)  
   NaSO4-          6.431e-04   3.850e-04    -3.192    -3.415    -0.223     (0)  
O(0)          0.000e+00
   O2              0.000e+00   0.000e+00   -64.008   -63.631     0.377     (0)  
S(-2)         8.819e-09
   H2S             8.819e-09   2.100e-08    -8.055    -7.678     0.377     (0)  
   HS-             6.679e-15   3.299e-15   -14.175   -14.482    -0.306     (0)  
   Fe(HS)2         4.379e-22   1.043e-21   -21.359   -20.982     0.377     (0)  
   Cu(HS)3-        3.994e-24   6.940e-24   -23.399   -23.159     0.240     (0)  
   S5-2            3.302e-24   1.151e-24   -23.481   -23.939    -0.458     (0)  
   S4-2            2.312e-24   6.716e-25   -23.636   -24.173    -0.537     (0)  
   S6-2            1.493e-24   5.958e-25   -23.826   -24.225    -0.399     (0)  
   S-2             4.827e-27   5.471e-28   -26.316   -27.262    -0.946     (0)  
   S3-2            1.055e-27   2.366e-28   -26.977   -27.626    -0.649     (0)  
   S2-2            7.904e-29   1.343e-29   -28.102   -28.872    -0.770     (0)  
   Fe(HS)3-        2.156e-34   3.746e-34   -33.666   -33.426     0.240     (0)  
S(6)          1.435e-01
   HSO4-           9.081e-02   5.038e-02    -1.042    -1.298    -0.256     (0)  
   FeHSO4+         3.748e-02   6.513e-02    -1.426    -1.186     0.240     (0)  
   SO4-2           8.883e-03   7.116e-04    -2.051    -3.148    -1.096     (0)  
   FeSO4           5.713e-03   1.361e-02    -2.243    -1.866     0.377     (0)  
   NaSO4-          6.431e-04   3.850e-04    -3.192    -3.415    -0.223     (0)  
   CuSO4           1.485e-07   3.536e-07    -6.828    -6.451     0.377     (0)  
   FeSO4+          4.313e-08   2.503e-08    -7.365    -7.602    -0.236     (0)  
   FeHSO4+2        5.350e-09   4.880e-08    -8.272    -7.312     0.960     (0)  
   Fe(SO4)2-       2.242e-10   3.896e-10    -9.649    -9.409     0.240     (0)  

------------------------------Saturation indices-------------------------------

  Phase               SI** log IAP   log K(298 K,   1 atm)

  Anilite           3.55    -28.33  -31.88  Cu0.25Cu1.5S
  Antlerite       -27.89    -19.60    8.29  Cu3(OH)4SO4
  Atacamite       -18.09    -10.75    7.34  Cu2(OH)3Cl
  BlaubleiI         3.09    -21.07  -24.16  Cu0.9Cu0.2S
  BlaubleiII        2.86    -24.42  -27.28  Cu0.6Cu0.8S
  Brochantite     -40.36    -25.02   15.34  Cu4(OH)6SO4
  Chalcanthite     -6.32     -8.96   -2.64  CuSO4:5H2O
  Chalcocite        3.50    -31.12  -34.62  Cu2S
  Chalcopyrite      0.00    -35.27  -35.27  CuFeS2
  Covellite         2.31    -19.96  -22.27  CuS
  Cu(OH)2         -14.06     -5.42    8.64  Cu(OH)2
  Cu2SO4          -17.97    -19.92   -1.95  Cu2SO4
  CuMetal          -5.12    -13.88   -8.76  Cu
  CuOCuSO4        -25.67    -14.14   11.53  CuO:CuSO4
  CupricFerrite   -27.54    -21.66    5.88  CuFe2O4
  Cuprite         -14.99    -16.54   -1.55  Cu2O
  CuprousFerrite   -7.49    -16.41   -8.92  CuFeO2
  CuSO4           -11.77     -8.76    3.01  CuSO4
  Djurleite         3.54    -30.38  -33.92  Cu0.066Cu1.868S
  Fe(OH)2.7Cl.3    -5.13     -8.17   -3.04  Fe(OH)2.7Cl0.3
  Fe(OH)3(a)      -13.09     -8.20    4.89  Fe(OH)3
  Fe3(OH)8        -37.40    -17.17   20.22  Fe3(OH)8
  FeS(ppt)        -11.40    -15.31   -3.92  FeS
  Goethite         -7.16     -8.16   -1.00  FeOOH
  Greigite        -30.30    -75.33  -45.03  Fe3S4
  H2(g)           -11.26    -14.41   -3.15  H2
  H2O(g)           -1.55     -0.04    1.51  H2O
  H2S(g)           -6.68     -7.68   -1.00  H2S
  Halite           -2.36     -0.78    1.58  NaCl
  Hematite        -12.27    -16.28   -4.01  Fe2O3
  Jarosite-Na     -26.88    -32.16   -5.28  NaFe3(SO4)2(OH)6
  JarositeH       -25.98    -31.37   -5.39  (H3O)Fe3(SO4)2(OH)6
  Langite         -41.85    -25.06   16.79  Cu4(OH)6SO4:H2O
  Mackinawite     -10.66    -15.31   -4.65  FeS
  Maghemite       -22.67    -16.28    6.39  Fe2O3
  Magnetite       -20.75    -17.01    3.74  Fe3O4
  Melanothallite   -8.97     -5.24    3.73  CuCl2
  Melanterite      -2.19     -4.40   -2.21  FeSO4:7H2O
  Mirabilite       -4.37     -5.48   -1.11  Na2SO4:10H2O
  Nantokite        -1.44     -8.20   -6.76  CuCl
  O2(g)           -60.74    -63.63   -2.89  O2
  Pyrite           -0.19    -18.67  -18.48  FeS2
  Sulfur           -1.25    -16.27  -15.03  S
  Tenorite        -13.00     -5.38    7.62  CuO
  Thenardite       -4.90     -5.08   -0.18  Na2SO4

**For a gas, SI = log10(fugacity). Fugacity = pressure * phi / 1 atm.
  For ideal gases, phi = 1.

Reaction step 200.

Using solution 1.	
Using pure phase assemblage 1.	
Using kinetics 1.	

Kinetics 1.	

	Time step: 5184 seconds  (Incremented time: 1.0368e+06 seconds)

	Rate name       Delta Moles Total Moles   Reactant        Coefficient

	Chalcopyrite      9.888e-17   9.932e-03   Cu+2                      1
	                                          Fe+2                      5
	                                          Fe+3                     -4
	                                          Sulfur                    2

-------------------------------Phase assemblage--------------------------------

                                                      Moles in assemblage
Phase               SI  log IAP  log K(T, P)   Initial       Final       Delta

Pyrite           -0.19   -18.67    -18.48    0.000e+00           0   0.000e+00
Sulfur           -1.25   -16.27    -15.03    0.000e+00           0   0.000e+00

-----------------------------Solution composition------------------------------

	Elements           Molality       Moles

	Cl                3.339e+00   3.305e+00
	Cu                7.177e-02   7.105e-02
	Fe                1.148e+00   1.137e+00
	Na                1.077e-01   1.066e-01
	S                 1.435e-01   1.421e-01

----------------------------Description of solution----------------------------

                                       pH  =   0.138      Charge balance
                                       pe  =   5.495      Adjusted to redox equilibrium
                        Activity of water  =   0.912
                 Ionic strength (mol/kgw)  =   3.769e+00
                       Mass of water (kg)  =   9.900e-01
                 Total alkalinity (eq/kg)  =  -1.150e+00
                         Temperature (°C)  =  25.00
                  Electrical balance (eq)  =   1.659e-08
 Percent error, 100*(Cat-|An|)/(Cat+|An|)  =   0.00
                               Iterations  =   8 (16 overall)
                                  Total H  = 1.110389e+02
                                  Total O  = 5.551874e+01

----------------------------Distribution of species----------------------------

                                               Log       Log       Log    mole V
   Species          Molality    Activity  Molality  Activity     Gamma   cm³/mol

   H+              1.021e+00   7.282e-01     0.009    -0.138    -0.147      0.00
   OH-             2.538e-14   1.254e-14   -13.596   -13.902    -0.306     (0)  
   H2O             5.551e+01   9.119e-01     1.744    -0.040     0.000     18.07
Cl            3.339e+00
   Cl-             2.736e+00   1.539e+00     0.437     0.187    -0.250     (0)  
   FeCl+           3.937e-01   2.284e-01    -0.405    -0.641    -0.236     (0)  
   CuCl3-2         6.591e-02   7.471e-03    -1.181    -2.127    -0.946     (0)  
   CuCl2-          5.821e-03   3.063e-03    -2.235    -2.514    -0.279     (0)  
   CuCl+           1.916e-05   1.008e-05    -4.718    -4.996    -0.279     (0)  
   CuCl2           3.499e-06   8.332e-06    -5.456    -5.079     0.377     (0)  
   FeCl+2          1.315e-06   1.491e-07    -5.881    -6.827    -0.946     (0)  
   FeCl2+          5.896e-07   1.025e-06    -6.229    -5.989     0.240     (0)  
   CuCl3-          8.646e-08   4.550e-08    -7.063    -7.342    -0.279     (0)  
   FeCl3           6.621e-08   1.577e-07    -7.179    -6.802     0.377     (0)  
   CuCl4-2         3.096e-09   3.509e-10    -8.509    -9.455    -0.946     (0)  
Cu(1)         7.173e-02
   CuCl3-2         6.591e-02   7.471e-03    -1.181    -2.127    -0.946     (0)  
   CuCl2-          5.821e-03   3.063e-03    -2.235    -2.514    -0.279     (0)  
   Cu+             9.848e-09   4.090e-09    -8.007    -8.388    -0.382     (0)  
Cu(2)         3.900e-05
   CuCl+           1.916e-05   1.008e-05    -4.718    -4.996    -0.279     (0)  
   Cu+2            1.610e-05   2.434e-06    -4.793    -5.614    -0.821     (0)  
   CuCl2           3.499e-06   8.332e-06    -5.456    -5.079     0.377     (0)  
   CuSO4           1.485e-07   3.536e-07    -6.828    -6.451     0.377     (0)  
   CuCl3-          8.646e-08   4.550e-08    -7.063    -7.342    -0.279     (0)  
   CuCl4-2         3.096e-09   3.509e-10    -8.509    -9.455    -0.946     (0)  
   CuOH+           5.792e-14   3.048e-14   -13.237   -13.516    -0.279     (0)  
   Cu(OH)2         3.348e-20   7.973e-20   -19.475   -19.098     0.377     (0)  
   Cu2(OH)2+2      4.456e-23   4.064e-22   -22.351   -21.391     0.960     (0)  
   Cu(HS)3-        3.994e-24   6.940e-24   -23.399   -23.159     0.240     (0)  
   Cu(OH)3-        3.462e-33   6.016e-33   -32.461   -32.221     0.240     (0)  
   Cu(OH)4-2       0.000e+00   0.000e+00   -45.783   -44.823     0.960     (0)  
Fe(2)         1.148e+00
   Fe+2            7.114e-01   1.075e-01    -0.148    -0.968    -0.821     (0)  
   FeCl+           3.937e-01   2.284e-01    -0.405    -0.641    -0.236     (0)  
   FeHSO4+         3.748e-02   6.513e-02    -1.426    -1.186     0.240     (0)  
   FeSO4           5.713e-03   1.361e-02    -2.243    -1.866     0.377     (0)  
   FeOH+           7.338e-11   4.258e-11   -10.134   -10.371    -0.236     (0)  
   Fe(HS)2         4.379e-22   1.043e-21   -21.359   -20.982     0.377     (0)  
   Fe(OH)2         1.905e-22   4.538e-22   -21.720   -21.343     0.377     (0)  
   Fe(OH)3-        3.638e-32   2.111e-32   -31.439   -31.675    -0.236     (0)  
   Fe(HS)3-        2.156e-34   3.746e-34   -33.666   -33.426     0.240     (0)  
Fe(3)         2.087e-06
   FeCl+2          1.315e-06   1.491e-07    -5.881    -6.827    -0.946     (0)  
   FeCl2+          5.896e-07   1.025e-06    -6.229    -5.989     0.240     (0)  
   Fe+3            6.736e-08   3.207e-09    -7.172    -8.494    -1.322     (0)  
   FeCl3           6.621e-08   1.577e-07    -7.179    -6.802     0.377     (0)  
   FeSO4+          4.313e-08   2.503e-08    -7.365    -7.602    -0.236     (0)  
   FeHSO4+2        5.350e-09   4.880e-08    -8.272    -7.312     0.960     (0)  
   FeOH+2          2.287e-10   2.593e-11    -9.641   -10.586    -0.946     (0)  
   Fe(SO4)2-       2.242e-10   3.896e-10    -9.649    -9.409     0.240     (0)  
   Fe(OH)2+        1.796e-14   1.075e-14   -13.746   -13.969    -0.223     (0)  
   Fe(OH)3         7.282e-22   1.734e-21   -21.138   -20.761     0.377     (0)  
   Fe2(OH)2+4      2.614e-24   1.810e-20   -23.583   -19.742     3.840     (0)  
   Fe(OH)4-        3.308e-30   1.981e-30   -29.480   -29.703    -0.223     (0)  
   Fe3(OH)4+5      4.061e-38   4.065e-32   -37.391   -31.391     6.000     (0)  
H(0)          3.232e-15
   H2              1.616e-15   3.849e-15   -14.792   -14.415     0.377     (0)  
Na            1.077e-01
   Na+             1.070e-01   1.080e-01    -0.971    -0.967     0.004     (0)  
   NaSO4-          6.431e-04   3.850e-04    -3.192    -3.415    -0.223     (0)  
O(0)          0.000e+00
   O2              0.000e+00   0.000e+00   -64.008   -63.631     0.377     (0)  
S(-2)         8.819e-09
   H2S             8.819e-09   2.100e-08    -8.055    -7.678     0.377     (0)  
   HS-             6.679e-15   3.299e-15   -14.175   -14.482    -0.306     (0)  
   Fe(HS)2         4.379e-22   1.043e-21   -21.359   -20.982     0.377     (0)  
   Cu(HS)3-        3.994e-24   6.940e-24   -23.399   -23.159     0.240     (0)  
   S5-2            3.302e-24   1.151e-24   -23.481   -23.939    -0.458     (0)  
   S4-2            2.312e-24   6.716e-25   -23.636   -24.173    -0.537     (0)  
   S6-2            1.493e-24   5.958e-25   -23.826   -24.225    -0.399     (0)  
   S-2             4.827e-27   5.471e-28   -26.316   -27.262    -0.946     (0)  
   S3-2            1.055e-27   2.366e-28   -26.977   -27.626    -0.649     (0)  
   S2-2            7.904e-29   1.343e-29   -28.102   -28.872    -0.770     (0)  
   Fe(HS)3-        2.156e-34   3.746e-34   -33.666   -33.426     0.240     (0)  
S(6)          1.435e-01
   HSO4-           9.081e-02   5.038e-02    -1.042    -1.298    -0.256     (0)  
   FeHSO4+         3.748e-02   6.513e-02    -1.426    -1.186     0.240     (0)  
   SO4-2           8.883e-03   7.116e-04    -2.051    -3.148    -1.096     (0)  
   FeSO4           5.713e-03   1.361e-02    -2.243    -1.866     0.377     (0)  
   NaSO4-          6.431e-04   3.850e-04    -3.192    -3.415    -0.223     (0)  
   CuSO4           1.485e-07   3.536e-07    -6.828    -6.451     0.377     (0)  
   FeSO4+          4.313e-08   2.503e-08    -7.365    -7.602    -0.236     (0)  
   FeHSO4+2        5.350e-09   4.880e-08    -8.272    -7.312     0.960     (0)  
   Fe(SO4)2-       2.242e-10   3.896e-10    -9.649    -9.409     0.240     (0)  

------------------------------Saturation indices-------------------------------

  Phase               SI** log IAP   log K(298 K,   1 atm)

  Anilite           3.55    -28.33  -31.88  Cu0.25Cu1.5S
  Antlerite       -27.89    -19.60    8.29  Cu3(OH)4SO4
  Atacamite       -18.09    -10.75    7.34  Cu2(OH)3Cl
  BlaubleiI         3.09    -21.07  -24.16  Cu0.9Cu0.2S
  BlaubleiII        2.86    -24.42  -27.28  Cu0.6Cu0.8S
  Brochantite     -40.36    -25.02   15.34  Cu4(OH)6SO4
  Chalcanthite     -6.32     -8.96   -2.64  CuSO4:5H2O
  Chalcocite        3.50    -31.12  -34.62  Cu2S
  Chalcopyrite     -0.00    -35.27  -35.27  CuFeS2
  Covellite         2.31    -19.96  -22.27  CuS
  Cu(OH)2         -14.06     -5.42    8.64  Cu(OH)2
  Cu2SO4          -17.97    -19.92   -1.95  Cu2SO4
  CuMetal          -5.12    -13.88   -8.76  Cu
  CuOCuSO4        -25.67    -14.14   11.53  CuO:CuSO4
  CupricFerrite   -27.54    -21.66    5.88  CuFe2O4
  Cuprite         -14.99    -16.54   -1.55  Cu2O
  CuprousFerrite   -7.49    -16.41   -8.92  CuFeO2
  CuSO4           -11.77     -8.76    3.01  CuSO4
  Djurleite         3.54    -30.38  -33.92  Cu0.066Cu1.868S
  Fe(OH)2.7Cl.3    -5.13     -8.17   -3.04  Fe(OH)2.7Cl0.3
  Fe(OH)3(a)      -13.09     -8.20    4.89  Fe(OH)3
  Fe3(OH)8        -37.40    -17.17   20.22  Fe3(OH)8
  FeS(ppt)        -11.40    -15.31   -3.92  FeS
  Goethite         -7.16     -8.16   -1.00  FeOOH
  Greigite        -30.30    -75.33  -45.03  Fe3S4
  H2(g)           -11.26    -14.41   -3.15  H2
  H2O(g)           -1.55     -0.04    1.51  H2O
  H2S(g)           -6.68     -7.68   -1.00  H2S
  Halite           -2.36     -0.78    1.58  NaCl
  Hematite        -12.27    -16.28   -4.01  Fe2O3
  Jarosite-Na     -26.88    -32.16   -5.28  NaFe3(SO4)2(OH)6
  JarositeH       -25.98    -31.37   -5.39  (H3O)Fe3(SO4)2(OH)6
  Langite         -41.85    -25.06   16.79  Cu4(OH)6SO4:H2O
  Mackinawite     -10.66    -15.31   -4.65  FeS
  Maghemite       -22.67    -16.28    6.39  Fe2O3
  Magnetite       -20.75    -17.01    3.74  Fe3O4
  Melanothallite   -8.97     -5.24    3.73  CuCl2
  Melanterite      -2.19     -4.40   -2.21  FeSO4:7H2O
  Mirabilite       -4.37     -5.48   -1.11  Na2SO4:10H2O
  Nantokite        -1.44     -8.20   -6.76  CuCl
  O2(g)           -60.74    -63.63   -2.89  O2
  Pyrite           -0.19    -18.67  -18.48  FeS2
  Sulfur           -1.25    -16.27  -15.03  S
  Tenorite        -13.00     -5.38    7.62  CuO
  Thenardite       -4.90     -5.08   -0.18  Na2SO4

**For a gas, SI = log10(fugacity). Fugacity = pressure * phi / 1 atm.
  For ideal gases, phi = 1.

------------------
End of simulation.
------------------

------------------------------------
Reading input data for simulation 2.
------------------------------------

-------------------------------
End of Run after 1.413 Seconds.
-------------------------------

