   Input file: /home/ort021/Documents/phd/modeling/transport/phreeqpy-ex/uphill.phr
  Output file: /home/ort021/Documents/phd/modeling/transport/phreeqpy-ex/uphill.phr.out
Database file: ./database/phreeqc.dat

------------------
Reading data base.
------------------

	SOLUTION_MASTER_SPECIES
	SOLUTION_SPECIES
	PHASES
	EXCHANGE_MASTER_SPECIES
	EXCHANGE_SPECIES
	SURFACE_MASTER_SPECIES
	SURFACE_SPECIES
	RATES
	END
------------------------------------
Reading input data for simulation 1.
------------------------------------

	DATABASE ./database/phreeqc.dat
	SOLUTION 0
	 pH 6 charge
	 N(5) 1e-3
	 Na 0.1
	 Cl 0.1
	END
-------------------------------------------
Beginning of initial solution calculations.
-------------------------------------------

Initial solution 0.	

-----------------------------Solution composition------------------------------

	Elements           Molality       Moles

	Cl                1.000e-04   1.000e-04
	N(5)              1.000e-06   1.000e-06
	Na                1.000e-04   1.000e-04

----------------------------Description of solution----------------------------

                                       pH  =   6.001      Charge balance
                                       pe  =   4.000    
      Specific Conductance (µS/cm,  25°C)  = 12
                          Density (g/cm³)  =   0.99705
                               Volume (L)  =   1.00297
                        Activity of water  =   1.000
                 Ionic strength (mol/kgw)  =   1.010e-04
                       Mass of water (kg)  =   1.000e+00
                 Total alkalinity (eq/kg)  =  -1.000e-06
                         Temperature (°C)  =  25.00
                  Electrical balance (eq)  =  -1.131e-14
 Percent error, 100*(Cat-|An|)/(Cat+|An|)  =  -0.00
                               Iterations  =   2
                                  Total H  = 1.110124e+02
                                  Total O  = 5.550622e+01

----------------------------Distribution of species----------------------------

                                               Log       Log       Log    mole V
   Species          Molality    Activity  Molality  Activity     Gamma   cm³/mol

   H+              1.010e-06   9.987e-07    -5.996    -6.001    -0.005      0.00
   OH-             1.025e-08   1.013e-08    -7.989    -7.994    -0.005     -4.13
   H2O             5.551e+01   1.000e+00     1.744    -0.000     0.000     18.07
Cl            1.000e-04
   Cl-             1.000e-04   9.884e-05    -4.000    -4.005    -0.005     18.05
H(0)          1.412e-23
   H2              7.061e-24   7.062e-24   -23.151   -23.151     0.000     28.61
N(5)          1.000e-06
   NO3-            1.000e-06   9.884e-07    -6.000    -6.005    -0.005     29.47
Na            1.000e-04
   Na+             1.000e-04   9.884e-05    -4.000    -4.005    -0.005     -1.51
   NaOH            1.002e-22   1.002e-22   -21.999   -21.999     0.000     (0)  
O(0)          0.000e+00
   O2              0.000e+00   0.000e+00   -46.078   -46.078     0.000     30.40

------------------------------Saturation indices-------------------------------

  Phase               SI** log IAP   log K(298 K,   1 atm)

  H2(g)           -20.05    -23.15   -3.10  H2
  H2O(g)           -1.50     -0.00    1.50  H2O
  Halite           -9.58     -8.01    1.57  NaCl
  O2(g)           -43.19    -46.08   -2.89  O2

**For a gas, SI = log10(fugacity). Fugacity = pressure * phi / 1 atm.
  For ideal gases, phi = 1.

------------------
End of simulation.
------------------

------------------------------------
Reading input data for simulation 2.
------------------------------------

	SOLUTION 1-20
	 pH 4 charge
	 N(5) 0.1
	 Na 0.1
	 Cl 0.1
	TRANSPORT
	 cells 10
	 lengths 1e-3
	 boundary_conditions 1 3
	 shifts 1
	 flow_direction diffusion_only
	 timest 3600
	 multi_d true 1e-9 1 0.0 1.0 # Default D_w m2/s, porosity, porosity limit, exponent
	 punch_cells 0-10
	USER_PUNCH
WARNING: Cell-lengths were read for 1 cells. Last value is used till cell 10.
WARNING: No dispersivities were read; disp = 0 assumed.
WARNING: No porosities were read; used the value 1.00e+00 from -multi_D.
		headings dist H+ NO3- Na+ Cl- lgH+ lgNO3- lgNa+ lgCl- 
		start
		10 PUNCH dist*1e3 
		20 PUNCH MOL("H+")*1e3, MOL("NO3-")*1e3, MOL("Na+")*1e3, MOL("Cl-")*1e3
		20 PUNCH LG("H+")*1e3, LG("NO3-")*1e3, LG("Na+")*1e3, LG("Cl-")*1e3
			end
	SELECTED_OUTPUT
	    file           data/uphill.csv
	    reset          false
	    step 			true
	END
-------------------------------------------
Beginning of initial solution calculations.
-------------------------------------------

Initial solution 1.	

-----------------------------Solution composition------------------------------

	Elements           Molality       Moles

	Cl                1.000e-04   1.000e-04
	N(5)              1.000e-04   1.000e-04
	Na                1.000e-04   1.000e-04

----------------------------Description of solution----------------------------

                                       pH  =   4.007      Charge balance
                                       pe  =   4.000    
      Specific Conductance (µS/cm,  25°C)  = 54
                          Density (g/cm³)  =   0.99705
                               Volume (L)  =   1.00297
                        Activity of water  =   1.000
                 Ionic strength (mol/kgw)  =   2.000e-04
                       Mass of water (kg)  =   1.000e+00
                 Total alkalinity (eq/kg)  =  -1.000e-04
                         Temperature (°C)  =  25.00
                  Electrical balance (eq)  =  -1.899e-17
 Percent error, 100*(Cat-|An|)/(Cat+|An|)  =  -0.00
                               Iterations  =   3
                                  Total H  = 1.110125e+02
                                  Total O  = 5.550652e+01

----------------------------Distribution of species----------------------------

                                               Log       Log       Log    mole V
   Species          Molality    Activity  Molality  Activity     Gamma   cm³/mol

   H+              1.000e-04   9.842e-05    -4.000    -4.007    -0.007      0.00
   OH-             1.045e-10   1.028e-10    -9.981    -9.988    -0.007     -4.12
   H2O             5.551e+01   1.000e+00     1.744    -0.000     0.000     18.07
Cl            1.000e-04
   Cl-             1.000e-04   9.838e-05    -4.000    -4.007    -0.007     18.06
H(0)          1.371e-19
   H2              6.857e-20   6.857e-20   -19.164   -19.164     0.000     28.61
N(5)          1.000e-04
   NO3-            1.000e-04   9.838e-05    -4.000    -4.007    -0.007     29.47
Na            1.000e-04
   Na+             1.000e-04   9.839e-05    -4.000    -4.007    -0.007     -1.50
   NaOH            1.012e-24   1.012e-24   -23.995   -23.995     0.000     (0)  
O(0)          0.000e+00
   O2              0.000e+00   0.000e+00   -54.052   -54.052     0.000     30.40

------------------------------Saturation indices-------------------------------

  Phase               SI** log IAP   log K(298 K,   1 atm)

  H2(g)           -16.06    -19.16   -3.10  H2
  H2O(g)           -1.50     -0.00    1.50  H2O
  Halite           -9.58     -8.01    1.57  NaCl
  O2(g)           -51.16    -54.05   -2.89  O2

**For a gas, SI = log10(fugacity). Fugacity = pressure * phi / 1 atm.
  For ideal gases, phi = 1.

------------------------------------
Beginning of transport calculations.
------------------------------------

-------------------------------
Equilibrating initial solutions
-------------------------------

Using solution 0.	

-----------------------------Solution composition------------------------------

	Elements           Molality       Moles

	Cl                1.000e-04   1.000e-04
	N                 1.000e-06   1.000e-06
	Na                1.000e-04   1.000e-04

----------------------------Description of solution----------------------------

                                       pH  =   6.001      Charge balance
                                       pe  =  13.252      Adjusted to redox equilibrium
      Specific Conductance (µS/cm,  25°C)  = 12
                          Density (g/cm³)  =   0.99705
                               Volume (L)  =   1.00297
                        Activity of water  =   1.000
                 Ionic strength (mol/kgw)  =   1.010e-04
                       Mass of water (kg)  =   1.000e+00
                 Total alkalinity (eq/kg)  =  -9.993e-07
                         Temperature (°C)  =  25.00
                  Electrical balance (eq)  =  -1.131e-14
 Percent error, 100*(Cat-|An|)/(Cat+|An|)  =  -0.00
                               Iterations  =  19 (22 overall)
                                  Total H  = 1.110124e+02
                                  Total O  = 5.550622e+01

----------------------------Distribution of species----------------------------

                                               Log       Log       Log    mole V
   Species          Molality    Activity  Molality  Activity     Gamma   cm³/mol

   H+              1.010e-06   9.981e-07    -5.996    -6.001    -0.005      0.00
   OH-             1.026e-08   1.014e-08    -7.989    -7.994    -0.005     -4.13
   H2O             5.551e+01   1.000e+00     1.744    -0.000     0.000     18.07
Cl            1.000e-04
   Cl-             1.000e-04   9.884e-05    -4.000    -4.005    -0.005     18.05
H(0)          0.000e+00
   H2              0.000e+00   0.000e+00   -41.657   -41.657     0.000     28.61
N(-3)         0.000e+00
   NH4+            0.000e+00   0.000e+00   -52.951   -52.956    -0.005     17.94
   NH3             0.000e+00   0.000e+00   -56.199   -56.199     0.000     24.42
N(0)          6.856e-10
   N2              3.428e-10   3.428e-10    -9.465    -9.465     0.000     29.29
N(3)          1.157e-16
   NO2-            1.157e-16   1.143e-16   -15.937   -15.942    -0.005     24.95
N(5)          9.993e-07
   NO3-            9.993e-07   9.877e-07    -6.000    -6.005    -0.005     29.47
Na            1.000e-04
   Na+             1.000e-04   9.884e-05    -4.000    -4.005    -0.005     -1.51
   NaOH            1.002e-22   1.002e-22   -21.999   -21.999     0.000     (0)  
O(0)          1.714e-09
   O2              8.570e-10   8.570e-10    -9.067    -9.067     0.000     30.40

------------------------------Saturation indices-------------------------------

  Phase               SI** log IAP   log K(298 K,   1 atm)

  H2(g)           -38.56    -41.66   -3.10  H2
  H2O(g)           -1.50     -0.00    1.50  H2O
  Halite           -9.58     -8.01    1.57  NaCl
  N2(g)            -6.29     -9.46   -3.18  N2
  NH3(g)          -58.00    -56.20    1.80  NH3
  O2(g)            -6.17     -9.07   -2.89  O2

**For a gas, SI = log10(fugacity). Fugacity = pressure * phi / 1 atm.
  For ideal gases, phi = 1.

Using solution 1.	

-----------------------------Solution composition------------------------------

	Elements           Molality       Moles

	Cl                1.000e-04   1.000e-04
	N                 1.000e-04   1.000e-04
	Na                1.000e-04   1.000e-04

----------------------------Description of solution----------------------------

                                       pH  =   4.007      Charge balance
                                       pe  =  15.816      Adjusted to redox equilibrium
      Specific Conductance (µS/cm,  25°C)  = 54
                          Density (g/cm³)  =   0.99705
                               Volume (L)  =   1.00297
                        Activity of water  =   1.000
                 Ionic strength (mol/kgw)  =   1.999e-04
                       Mass of water (kg)  =   1.000e+00
                 Total alkalinity (eq/kg)  =  -9.987e-05
                         Temperature (°C)  =  25.00
                  Electrical balance (eq)  =  -1.760e-17
 Percent error, 100*(Cat-|An|)/(Cat+|An|)  =  -0.00
                               Iterations  =  19 (41 overall)
                                  Total H  = 1.110125e+02
                                  Total O  = 5.550652e+01

----------------------------Distribution of species----------------------------

                                               Log       Log       Log    mole V
   Species          Molality    Activity  Molality  Activity     Gamma   cm³/mol

   H+              9.987e-05   9.829e-05    -4.001    -4.007    -0.007      0.00
   OH-             1.047e-10   1.030e-10    -9.980    -9.987    -0.007     -4.12
   H2O             5.551e+01   1.000e+00     1.744    -0.000     0.000     18.07
Cl            1.000e-04
   Cl-             1.000e-04   9.838e-05    -4.000    -4.007    -0.007     18.06
H(0)          0.000e+00
   H2              0.000e+00   0.000e+00   -42.797   -42.797     0.000     28.61
N(-3)         0.000e+00
   NH4+            0.000e+00   0.000e+00   -51.526   -51.533    -0.007     17.95
   NH3             0.000e+00   0.000e+00   -56.770   -56.770     0.000     24.42
N(0)          1.308e-07
   N2              6.541e-08   6.541e-08    -7.184    -7.184     0.000     29.29
N(3)          8.368e-16
   NO2-            8.368e-16   8.232e-16   -15.077   -15.084    -0.007     24.95
N(5)          9.987e-05
   NO3-            9.987e-05   9.825e-05    -4.001    -4.008    -0.007     29.47
Na            1.000e-04
   Na+             1.000e-04   9.839e-05    -4.000    -4.007    -0.007     -1.50
   NaOH            1.013e-24   1.013e-24   -23.994   -23.994     0.000     (0)  
O(0)          3.270e-07
   O2              1.635e-07   1.635e-07    -6.786    -6.786     0.000     30.40

------------------------------Saturation indices-------------------------------

  Phase               SI** log IAP   log K(298 K,   1 atm)

  H2(g)           -39.70    -42.80   -3.10  H2
  H2O(g)           -1.50     -0.00    1.50  H2O
  Halite           -9.58     -8.01    1.57  NaCl
  N2(g)            -4.01     -7.18   -3.18  N2
  NH3(g)          -58.57    -56.77    1.80  NH3
  O2(g)            -3.89     -6.79   -2.89  O2

**For a gas, SI = log10(fugacity). Fugacity = pressure * phi / 1 atm.
  For ideal gases, phi = 1.

Using solution 2.	

-----------------------------Solution composition------------------------------

	Elements           Molality       Moles

	Cl                1.000e-04   1.000e-04
	N                 1.000e-04   1.000e-04
	Na                1.000e-04   1.000e-04

----------------------------Description of solution----------------------------

                                       pH  =   4.007      Charge balance
                                       pe  =  15.816      Adjusted to redox equilibrium
      Specific Conductance (µS/cm,  25°C)  = 54
                          Density (g/cm³)  =   0.99705
                               Volume (L)  =   1.00297
                        Activity of water  =   1.000
                 Ionic strength (mol/kgw)  =   1.999e-04
                       Mass of water (kg)  =   1.000e+00
                 Total alkalinity (eq/kg)  =  -9.987e-05
                         Temperature (°C)  =  25.00
                  Electrical balance (eq)  =  -1.760e-17
 Percent error, 100*(Cat-|An|)/(Cat+|An|)  =  -0.00
                               Iterations  =  19 (60 overall)
                                  Total H  = 1.110125e+02
                                  Total O  = 5.550652e+01

----------------------------Distribution of species----------------------------

                                               Log       Log       Log    mole V
   Species          Molality    Activity  Molality  Activity     Gamma   cm³/mol

   H+              9.987e-05   9.829e-05    -4.001    -4.007    -0.007      0.00
   OH-             1.047e-10   1.030e-10    -9.980    -9.987    -0.007     -4.12
   H2O             5.551e+01   1.000e+00     1.744    -0.000     0.000     18.07
Cl            1.000e-04
   Cl-             1.000e-04   9.838e-05    -4.000    -4.007    -0.007     18.06
H(0)          0.000e+00
   H2              0.000e+00   0.000e+00   -42.797   -42.797     0.000     28.61
N(-3)         0.000e+00
   NH4+            0.000e+00   0.000e+00   -51.526   -51.533    -0.007     17.95
   NH3             0.000e+00   0.000e+00   -56.770   -56.770     0.000     24.42
N(0)          1.308e-07
   N2              6.541e-08   6.541e-08    -7.184    -7.184     0.000     29.29
N(3)          8.368e-16
   NO2-            8.368e-16   8.232e-16   -15.077   -15.084    -0.007     24.95
N(5)          9.987e-05
   NO3-            9.987e-05   9.825e-05    -4.001    -4.008    -0.007     29.47
Na            1.000e-04
   Na+             1.000e-04   9.839e-05    -4.000    -4.007    -0.007     -1.50
   NaOH            1.013e-24   1.013e-24   -23.994   -23.994     0.000     (0)  
O(0)          3.270e-07
   O2              1.635e-07   1.635e-07    -6.786    -6.786     0.000     30.40

------------------------------Saturation indices-------------------------------

  Phase               SI** log IAP   log K(298 K,   1 atm)

  H2(g)           -39.70    -42.80   -3.10  H2
  H2O(g)           -1.50     -0.00    1.50  H2O
  Halite           -9.58     -8.01    1.57  NaCl
  N2(g)            -4.01     -7.18   -3.18  N2
  NH3(g)          -58.57    -56.77    1.80  NH3
  O2(g)            -3.89     -6.79   -2.89  O2

**For a gas, SI = log10(fugacity). Fugacity = pressure * phi / 1 atm.
  For ideal gases, phi = 1.

Using solution 3.	

-----------------------------Solution composition------------------------------

	Elements           Molality       Moles

	Cl                1.000e-04   1.000e-04
	N                 1.000e-04   1.000e-04
	Na                1.000e-04   1.000e-04

----------------------------Description of solution----------------------------

                                       pH  =   4.007      Charge balance
                                       pe  =  15.816      Adjusted to redox equilibrium
      Specific Conductance (µS/cm,  25°C)  = 54
                          Density (g/cm³)  =   0.99705
                               Volume (L)  =   1.00297
                        Activity of water  =   1.000
                 Ionic strength (mol/kgw)  =   1.999e-04
                       Mass of water (kg)  =   1.000e+00
                 Total alkalinity (eq/kg)  =  -9.987e-05
                         Temperature (°C)  =  25.00
                  Electrical balance (eq)  =  -1.760e-17
 Percent error, 100*(Cat-|An|)/(Cat+|An|)  =  -0.00
                               Iterations  =  19 (79 overall)
                                  Total H  = 1.110125e+02
                                  Total O  = 5.550652e+01

----------------------------Distribution of species----------------------------

                                               Log       Log       Log    mole V
   Species          Molality    Activity  Molality  Activity     Gamma   cm³/mol

   H+              9.987e-05   9.829e-05    -4.001    -4.007    -0.007      0.00
   OH-             1.047e-10   1.030e-10    -9.980    -9.987    -0.007     -4.12
   H2O             5.551e+01   1.000e+00     1.744    -0.000     0.000     18.07
Cl            1.000e-04
   Cl-             1.000e-04   9.838e-05    -4.000    -4.007    -0.007     18.06
H(0)          0.000e+00
   H2              0.000e+00   0.000e+00   -42.797   -42.797     0.000     28.61
N(-3)         0.000e+00
   NH4+            0.000e+00   0.000e+00   -51.526   -51.533    -0.007     17.95
   NH3             0.000e+00   0.000e+00   -56.770   -56.770     0.000     24.42
N(0)          1.308e-07
   N2              6.541e-08   6.541e-08    -7.184    -7.184     0.000     29.29
N(3)          8.368e-16
   NO2-            8.368e-16   8.232e-16   -15.077   -15.084    -0.007     24.95
N(5)          9.987e-05
   NO3-            9.987e-05   9.825e-05    -4.001    -4.008    -0.007     29.47
Na            1.000e-04
   Na+             1.000e-04   9.839e-05    -4.000    -4.007    -0.007     -1.50
   NaOH            1.013e-24   1.013e-24   -23.994   -23.994     0.000     (0)  
O(0)          3.270e-07
   O2              1.635e-07   1.635e-07    -6.786    -6.786     0.000     30.40

------------------------------Saturation indices-------------------------------

  Phase               SI** log IAP   log K(298 K,   1 atm)

  H2(g)           -39.70    -42.80   -3.10  H2
  H2O(g)           -1.50     -0.00    1.50  H2O
  Halite           -9.58     -8.01    1.57  NaCl
  N2(g)            -4.01     -7.18   -3.18  N2
  NH3(g)          -58.57    -56.77    1.80  NH3
  O2(g)            -3.89     -6.79   -2.89  O2

**For a gas, SI = log10(fugacity). Fugacity = pressure * phi / 1 atm.
  For ideal gases, phi = 1.

Using solution 4.	

-----------------------------Solution composition------------------------------

	Elements           Molality       Moles

	Cl                1.000e-04   1.000e-04
	N                 1.000e-04   1.000e-04
	Na                1.000e-04   1.000e-04

----------------------------Description of solution----------------------------

                                       pH  =   4.007      Charge balance
                                       pe  =  15.816      Adjusted to redox equilibrium
      Specific Conductance (µS/cm,  25°C)  = 54
                          Density (g/cm³)  =   0.99705
                               Volume (L)  =   1.00297
                        Activity of water  =   1.000
                 Ionic strength (mol/kgw)  =   1.999e-04
                       Mass of water (kg)  =   1.000e+00
                 Total alkalinity (eq/kg)  =  -9.987e-05
                         Temperature (°C)  =  25.00
                  Electrical balance (eq)  =  -1.760e-17
 Percent error, 100*(Cat-|An|)/(Cat+|An|)  =  -0.00
                               Iterations  =  19 (98 overall)
                                  Total H  = 1.110125e+02
                                  Total O  = 5.550652e+01

----------------------------Distribution of species----------------------------

                                               Log       Log       Log    mole V
   Species          Molality    Activity  Molality  Activity     Gamma   cm³/mol

   H+              9.987e-05   9.829e-05    -4.001    -4.007    -0.007      0.00
   OH-             1.047e-10   1.030e-10    -9.980    -9.987    -0.007     -4.12
   H2O             5.551e+01   1.000e+00     1.744    -0.000     0.000     18.07
Cl            1.000e-04
   Cl-             1.000e-04   9.838e-05    -4.000    -4.007    -0.007     18.06
H(0)          0.000e+00
   H2              0.000e+00   0.000e+00   -42.797   -42.797     0.000     28.61
N(-3)         0.000e+00
   NH4+            0.000e+00   0.000e+00   -51.526   -51.533    -0.007     17.95
   NH3             0.000e+00   0.000e+00   -56.770   -56.770     0.000     24.42
N(0)          1.308e-07
   N2              6.541e-08   6.541e-08    -7.184    -7.184     0.000     29.29
N(3)          8.368e-16
   NO2-            8.368e-16   8.232e-16   -15.077   -15.084    -0.007     24.95
N(5)          9.987e-05
   NO3-            9.987e-05   9.825e-05    -4.001    -4.008    -0.007     29.47
Na            1.000e-04
   Na+             1.000e-04   9.839e-05    -4.000    -4.007    -0.007     -1.50
   NaOH            1.013e-24   1.013e-24   -23.994   -23.994     0.000     (0)  
O(0)          3.270e-07
   O2              1.635e-07   1.635e-07    -6.786    -6.786     0.000     30.40

------------------------------Saturation indices-------------------------------

  Phase               SI** log IAP   log K(298 K,   1 atm)

  H2(g)           -39.70    -42.80   -3.10  H2
  H2O(g)           -1.50     -0.00    1.50  H2O
  Halite           -9.58     -8.01    1.57  NaCl
  N2(g)            -4.01     -7.18   -3.18  N2
  NH3(g)          -58.57    -56.77    1.80  NH3
  O2(g)            -3.89     -6.79   -2.89  O2

**For a gas, SI = log10(fugacity). Fugacity = pressure * phi / 1 atm.
  For ideal gases, phi = 1.

Using solution 5.	

-----------------------------Solution composition------------------------------

	Elements           Molality       Moles

	Cl                1.000e-04   1.000e-04
	N                 1.000e-04   1.000e-04
	Na                1.000e-04   1.000e-04

----------------------------Description of solution----------------------------

                                       pH  =   4.007      Charge balance
                                       pe  =  15.816      Adjusted to redox equilibrium
      Specific Conductance (µS/cm,  25°C)  = 54
                          Density (g/cm³)  =   0.99705
                               Volume (L)  =   1.00297
                        Activity of water  =   1.000
                 Ionic strength (mol/kgw)  =   1.999e-04
                       Mass of water (kg)  =   1.000e+00
                 Total alkalinity (eq/kg)  =  -9.987e-05
                         Temperature (°C)  =  25.00
                  Electrical balance (eq)  =  -1.760e-17
 Percent error, 100*(Cat-|An|)/(Cat+|An|)  =  -0.00
                               Iterations  =  19 (117 overall)
                                  Total H  = 1.110125e+02
                                  Total O  = 5.550652e+01

----------------------------Distribution of species----------------------------

                                               Log       Log       Log    mole V
   Species          Molality    Activity  Molality  Activity     Gamma   cm³/mol

   H+              9.987e-05   9.829e-05    -4.001    -4.007    -0.007      0.00
   OH-             1.047e-10   1.030e-10    -9.980    -9.987    -0.007     -4.12
   H2O             5.551e+01   1.000e+00     1.744    -0.000     0.000     18.07
Cl            1.000e-04
   Cl-             1.000e-04   9.838e-05    -4.000    -4.007    -0.007     18.06
H(0)          0.000e+00
   H2              0.000e+00   0.000e+00   -42.797   -42.797     0.000     28.61
N(-3)         0.000e+00
   NH4+            0.000e+00   0.000e+00   -51.526   -51.533    -0.007     17.95
   NH3             0.000e+00   0.000e+00   -56.770   -56.770     0.000     24.42
N(0)          1.308e-07
   N2              6.541e-08   6.541e-08    -7.184    -7.184     0.000     29.29
N(3)          8.368e-16
   NO2-            8.368e-16   8.232e-16   -15.077   -15.084    -0.007     24.95
N(5)          9.987e-05
   NO3-            9.987e-05   9.825e-05    -4.001    -4.008    -0.007     29.47
Na            1.000e-04
   Na+             1.000e-04   9.839e-05    -4.000    -4.007    -0.007     -1.50
   NaOH            1.013e-24   1.013e-24   -23.994   -23.994     0.000     (0)  
O(0)          3.270e-07
   O2              1.635e-07   1.635e-07    -6.786    -6.786     0.000     30.40

------------------------------Saturation indices-------------------------------

  Phase               SI** log IAP   log K(298 K,   1 atm)

  H2(g)           -39.70    -42.80   -3.10  H2
  H2O(g)           -1.50     -0.00    1.50  H2O
  Halite           -9.58     -8.01    1.57  NaCl
  N2(g)            -4.01     -7.18   -3.18  N2
  NH3(g)          -58.57    -56.77    1.80  NH3
  O2(g)            -3.89     -6.79   -2.89  O2

**For a gas, SI = log10(fugacity). Fugacity = pressure * phi / 1 atm.
  For ideal gases, phi = 1.

Using solution 6.	

-----------------------------Solution composition------------------------------

	Elements           Molality       Moles

	Cl                1.000e-04   1.000e-04
	N                 1.000e-04   1.000e-04
	Na                1.000e-04   1.000e-04

----------------------------Description of solution----------------------------

                                       pH  =   4.007      Charge balance
                                       pe  =  15.816      Adjusted to redox equilibrium
      Specific Conductance (µS/cm,  25°C)  = 54
                          Density (g/cm³)  =   0.99705
                               Volume (L)  =   1.00297
                        Activity of water  =   1.000
                 Ionic strength (mol/kgw)  =   1.999e-04
                       Mass of water (kg)  =   1.000e+00
                 Total alkalinity (eq/kg)  =  -9.987e-05
                         Temperature (°C)  =  25.00
                  Electrical balance (eq)  =  -1.760e-17
 Percent error, 100*(Cat-|An|)/(Cat+|An|)  =  -0.00
                               Iterations  =  19 (136 overall)
                                  Total H  = 1.110125e+02
                                  Total O  = 5.550652e+01

----------------------------Distribution of species----------------------------

                                               Log       Log       Log    mole V
   Species          Molality    Activity  Molality  Activity     Gamma   cm³/mol

   H+              9.987e-05   9.829e-05    -4.001    -4.007    -0.007      0.00
   OH-             1.047e-10   1.030e-10    -9.980    -9.987    -0.007     -4.12
   H2O             5.551e+01   1.000e+00     1.744    -0.000     0.000     18.07
Cl            1.000e-04
   Cl-             1.000e-04   9.838e-05    -4.000    -4.007    -0.007     18.06
H(0)          0.000e+00
   H2              0.000e+00   0.000e+00   -42.797   -42.797     0.000     28.61
N(-3)         0.000e+00
   NH4+            0.000e+00   0.000e+00   -51.526   -51.533    -0.007     17.95
   NH3             0.000e+00   0.000e+00   -56.770   -56.770     0.000     24.42
N(0)          1.308e-07
   N2              6.541e-08   6.541e-08    -7.184    -7.184     0.000     29.29
N(3)          8.368e-16
   NO2-            8.368e-16   8.232e-16   -15.077   -15.084    -0.007     24.95
N(5)          9.987e-05
   NO3-            9.987e-05   9.825e-05    -4.001    -4.008    -0.007     29.47
Na            1.000e-04
   Na+             1.000e-04   9.839e-05    -4.000    -4.007    -0.007     -1.50
   NaOH            1.013e-24   1.013e-24   -23.994   -23.994     0.000     (0)  
O(0)          3.270e-07
   O2              1.635e-07   1.635e-07    -6.786    -6.786     0.000     30.40

------------------------------Saturation indices-------------------------------

  Phase               SI** log IAP   log K(298 K,   1 atm)

  H2(g)           -39.70    -42.80   -3.10  H2
  H2O(g)           -1.50     -0.00    1.50  H2O
  Halite           -9.58     -8.01    1.57  NaCl
  N2(g)            -4.01     -7.18   -3.18  N2
  NH3(g)          -58.57    -56.77    1.80  NH3
  O2(g)            -3.89     -6.79   -2.89  O2

**For a gas, SI = log10(fugacity). Fugacity = pressure * phi / 1 atm.
  For ideal gases, phi = 1.

Using solution 7.	

-----------------------------Solution composition------------------------------

	Elements           Molality       Moles

	Cl                1.000e-04   1.000e-04
	N                 1.000e-04   1.000e-04
	Na                1.000e-04   1.000e-04

----------------------------Description of solution----------------------------

                                       pH  =   4.007      Charge balance
                                       pe  =  15.816      Adjusted to redox equilibrium
      Specific Conductance (µS/cm,  25°C)  = 54
                          Density (g/cm³)  =   0.99705
                               Volume (L)  =   1.00297
                        Activity of water  =   1.000
                 Ionic strength (mol/kgw)  =   1.999e-04
                       Mass of water (kg)  =   1.000e+00
                 Total alkalinity (eq/kg)  =  -9.987e-05
                         Temperature (°C)  =  25.00
                  Electrical balance (eq)  =  -1.760e-17
 Percent error, 100*(Cat-|An|)/(Cat+|An|)  =  -0.00
                               Iterations  =  19 (155 overall)
                                  Total H  = 1.110125e+02
                                  Total O  = 5.550652e+01

----------------------------Distribution of species----------------------------

                                               Log       Log       Log    mole V
   Species          Molality    Activity  Molality  Activity     Gamma   cm³/mol

   H+              9.987e-05   9.829e-05    -4.001    -4.007    -0.007      0.00
   OH-             1.047e-10   1.030e-10    -9.980    -9.987    -0.007     -4.12
   H2O             5.551e+01   1.000e+00     1.744    -0.000     0.000     18.07
Cl            1.000e-04
   Cl-             1.000e-04   9.838e-05    -4.000    -4.007    -0.007     18.06
H(0)          0.000e+00
   H2              0.000e+00   0.000e+00   -42.797   -42.797     0.000     28.61
N(-3)         0.000e+00
   NH4+            0.000e+00   0.000e+00   -51.526   -51.533    -0.007     17.95
   NH3             0.000e+00   0.000e+00   -56.770   -56.770     0.000     24.42
N(0)          1.308e-07
   N2              6.541e-08   6.541e-08    -7.184    -7.184     0.000     29.29
N(3)          8.368e-16
   NO2-            8.368e-16   8.232e-16   -15.077   -15.084    -0.007     24.95
N(5)          9.987e-05
   NO3-            9.987e-05   9.825e-05    -4.001    -4.008    -0.007     29.47
Na            1.000e-04
   Na+             1.000e-04   9.839e-05    -4.000    -4.007    -0.007     -1.50
   NaOH            1.013e-24   1.013e-24   -23.994   -23.994     0.000     (0)  
O(0)          3.270e-07
   O2              1.635e-07   1.635e-07    -6.786    -6.786     0.000     30.40

------------------------------Saturation indices-------------------------------

  Phase               SI** log IAP   log K(298 K,   1 atm)

  H2(g)           -39.70    -42.80   -3.10  H2
  H2O(g)           -1.50     -0.00    1.50  H2O
  Halite           -9.58     -8.01    1.57  NaCl
  N2(g)            -4.01     -7.18   -3.18  N2
  NH3(g)          -58.57    -56.77    1.80  NH3
  O2(g)            -3.89     -6.79   -2.89  O2

**For a gas, SI = log10(fugacity). Fugacity = pressure * phi / 1 atm.
  For ideal gases, phi = 1.

Using solution 8.	

-----------------------------Solution composition------------------------------

	Elements           Molality       Moles

	Cl                1.000e-04   1.000e-04
	N                 1.000e-04   1.000e-04
	Na                1.000e-04   1.000e-04

----------------------------Description of solution----------------------------

                                       pH  =   4.007      Charge balance
                                       pe  =  15.816      Adjusted to redox equilibrium
      Specific Conductance (µS/cm,  25°C)  = 54
                          Density (g/cm³)  =   0.99705
                               Volume (L)  =   1.00297
                        Activity of water  =   1.000
                 Ionic strength (mol/kgw)  =   1.999e-04
                       Mass of water (kg)  =   1.000e+00
                 Total alkalinity (eq/kg)  =  -9.987e-05
                         Temperature (°C)  =  25.00
                  Electrical balance (eq)  =  -1.760e-17
 Percent error, 100*(Cat-|An|)/(Cat+|An|)  =  -0.00
                               Iterations  =  19 (174 overall)
                                  Total H  = 1.110125e+02
                                  Total O  = 5.550652e+01

----------------------------Distribution of species----------------------------

                                               Log       Log       Log    mole V
   Species          Molality    Activity  Molality  Activity     Gamma   cm³/mol

   H+              9.987e-05   9.829e-05    -4.001    -4.007    -0.007      0.00
   OH-             1.047e-10   1.030e-10    -9.980    -9.987    -0.007     -4.12
   H2O             5.551e+01   1.000e+00     1.744    -0.000     0.000     18.07
Cl            1.000e-04
   Cl-             1.000e-04   9.838e-05    -4.000    -4.007    -0.007     18.06
H(0)          0.000e+00
   H2              0.000e+00   0.000e+00   -42.797   -42.797     0.000     28.61
N(-3)         0.000e+00
   NH4+            0.000e+00   0.000e+00   -51.526   -51.533    -0.007     17.95
   NH3             0.000e+00   0.000e+00   -56.770   -56.770     0.000     24.42
N(0)          1.308e-07
   N2              6.541e-08   6.541e-08    -7.184    -7.184     0.000     29.29
N(3)          8.368e-16
   NO2-            8.368e-16   8.232e-16   -15.077   -15.084    -0.007     24.95
N(5)          9.987e-05
   NO3-            9.987e-05   9.825e-05    -4.001    -4.008    -0.007     29.47
Na            1.000e-04
   Na+             1.000e-04   9.839e-05    -4.000    -4.007    -0.007     -1.50
   NaOH            1.013e-24   1.013e-24   -23.994   -23.994     0.000     (0)  
O(0)          3.270e-07
   O2              1.635e-07   1.635e-07    -6.786    -6.786     0.000     30.40

------------------------------Saturation indices-------------------------------

  Phase               SI** log IAP   log K(298 K,   1 atm)

  H2(g)           -39.70    -42.80   -3.10  H2
  H2O(g)           -1.50     -0.00    1.50  H2O
  Halite           -9.58     -8.01    1.57  NaCl
  N2(g)            -4.01     -7.18   -3.18  N2
  NH3(g)          -58.57    -56.77    1.80  NH3
  O2(g)            -3.89     -6.79   -2.89  O2

**For a gas, SI = log10(fugacity). Fugacity = pressure * phi / 1 atm.
  For ideal gases, phi = 1.

Using solution 9.	

-----------------------------Solution composition------------------------------

	Elements           Molality       Moles

	Cl                1.000e-04   1.000e-04
	N                 1.000e-04   1.000e-04
	Na                1.000e-04   1.000e-04

----------------------------Description of solution----------------------------

                                       pH  =   4.007      Charge balance
                                       pe  =  15.816      Adjusted to redox equilibrium
      Specific Conductance (µS/cm,  25°C)  = 54
                          Density (g/cm³)  =   0.99705
                               Volume (L)  =   1.00297
                        Activity of water  =   1.000
                 Ionic strength (mol/kgw)  =   1.999e-04
                       Mass of water (kg)  =   1.000e+00
                 Total alkalinity (eq/kg)  =  -9.987e-05
                         Temperature (°C)  =  25.00
                  Electrical balance (eq)  =  -1.760e-17
 Percent error, 100*(Cat-|An|)/(Cat+|An|)  =  -0.00
                               Iterations  =  19 (193 overall)
                                  Total H  = 1.110125e+02
                                  Total O  = 5.550652e+01

----------------------------Distribution of species----------------------------

                                               Log       Log       Log    mole V
   Species          Molality    Activity  Molality  Activity     Gamma   cm³/mol

   H+              9.987e-05   9.829e-05    -4.001    -4.007    -0.007      0.00
   OH-             1.047e-10   1.030e-10    -9.980    -9.987    -0.007     -4.12
   H2O             5.551e+01   1.000e+00     1.744    -0.000     0.000     18.07
Cl            1.000e-04
   Cl-             1.000e-04   9.838e-05    -4.000    -4.007    -0.007     18.06
H(0)          0.000e+00
   H2              0.000e+00   0.000e+00   -42.797   -42.797     0.000     28.61
N(-3)         0.000e+00
   NH4+            0.000e+00   0.000e+00   -51.526   -51.533    -0.007     17.95
   NH3             0.000e+00   0.000e+00   -56.770   -56.770     0.000     24.42
N(0)          1.308e-07
   N2              6.541e-08   6.541e-08    -7.184    -7.184     0.000     29.29
N(3)          8.368e-16
   NO2-            8.368e-16   8.232e-16   -15.077   -15.084    -0.007     24.95
N(5)          9.987e-05
   NO3-            9.987e-05   9.825e-05    -4.001    -4.008    -0.007     29.47
Na            1.000e-04
   Na+             1.000e-04   9.839e-05    -4.000    -4.007    -0.007     -1.50
   NaOH            1.013e-24   1.013e-24   -23.994   -23.994     0.000     (0)  
O(0)          3.270e-07
   O2              1.635e-07   1.635e-07    -6.786    -6.786     0.000     30.40

------------------------------Saturation indices-------------------------------

  Phase               SI** log IAP   log K(298 K,   1 atm)

  H2(g)           -39.70    -42.80   -3.10  H2
  H2O(g)           -1.50     -0.00    1.50  H2O
  Halite           -9.58     -8.01    1.57  NaCl
  N2(g)            -4.01     -7.18   -3.18  N2
  NH3(g)          -58.57    -56.77    1.80  NH3
  O2(g)            -3.89     -6.79   -2.89  O2

**For a gas, SI = log10(fugacity). Fugacity = pressure * phi / 1 atm.
  For ideal gases, phi = 1.

Using solution 10.	

-----------------------------Solution composition------------------------------

	Elements           Molality       Moles

	Cl                1.000e-04   1.000e-04
	N                 1.000e-04   1.000e-04
	Na                1.000e-04   1.000e-04

----------------------------Description of solution----------------------------

                                       pH  =   4.007      Charge balance
                                       pe  =  15.816      Adjusted to redox equilibrium
      Specific Conductance (µS/cm,  25°C)  = 54
                          Density (g/cm³)  =   0.99705
                               Volume (L)  =   1.00297
                        Activity of water  =   1.000
                 Ionic strength (mol/kgw)  =   1.999e-04
                       Mass of water (kg)  =   1.000e+00
                 Total alkalinity (eq/kg)  =  -9.987e-05
                         Temperature (°C)  =  25.00
                  Electrical balance (eq)  =  -1.760e-17
 Percent error, 100*(Cat-|An|)/(Cat+|An|)  =  -0.00
                               Iterations  =  19 (212 overall)
                                  Total H  = 1.110125e+02
                                  Total O  = 5.550652e+01

----------------------------Distribution of species----------------------------

                                               Log       Log       Log    mole V
   Species          Molality    Activity  Molality  Activity     Gamma   cm³/mol

   H+              9.987e-05   9.829e-05    -4.001    -4.007    -0.007      0.00
   OH-             1.047e-10   1.030e-10    -9.980    -9.987    -0.007     -4.12
   H2O             5.551e+01   1.000e+00     1.744    -0.000     0.000     18.07
Cl            1.000e-04
   Cl-             1.000e-04   9.838e-05    -4.000    -4.007    -0.007     18.06
H(0)          0.000e+00
   H2              0.000e+00   0.000e+00   -42.797   -42.797     0.000     28.61
N(-3)         0.000e+00
   NH4+            0.000e+00   0.000e+00   -51.526   -51.533    -0.007     17.95
   NH3             0.000e+00   0.000e+00   -56.770   -56.770     0.000     24.42
N(0)          1.308e-07
   N2              6.541e-08   6.541e-08    -7.184    -7.184     0.000     29.29
N(3)          8.368e-16
   NO2-            8.368e-16   8.232e-16   -15.077   -15.084    -0.007     24.95
N(5)          9.987e-05
   NO3-            9.987e-05   9.825e-05    -4.001    -4.008    -0.007     29.47
Na            1.000e-04
   Na+             1.000e-04   9.839e-05    -4.000    -4.007    -0.007     -1.50
   NaOH            1.013e-24   1.013e-24   -23.994   -23.994     0.000     (0)  
O(0)          3.270e-07
   O2              1.635e-07   1.635e-07    -6.786    -6.786     0.000     30.40

------------------------------Saturation indices-------------------------------

  Phase               SI** log IAP   log K(298 K,   1 atm)

  H2(g)           -39.70    -42.80   -3.10  H2
  H2O(g)           -1.50     -0.00    1.50  H2O
  Halite           -9.58     -8.01    1.57  NaCl
  N2(g)            -4.01     -7.18   -3.18  N2
  NH3(g)          -58.57    -56.77    1.80  NH3
  O2(g)            -3.89     -6.79   -2.89  O2

**For a gas, SI = log10(fugacity). Fugacity = pressure * phi / 1 atm.
  For ideal gases, phi = 1.

Using solution 11.	

-----------------------------Solution composition------------------------------

	Elements           Molality       Moles

	Cl                1.000e-04   1.000e-04
	N                 1.000e-04   1.000e-04
	Na                1.000e-04   1.000e-04

----------------------------Description of solution----------------------------

                                       pH  =   4.007      Charge balance
                                       pe  =  15.816      Adjusted to redox equilibrium
      Specific Conductance (µS/cm,  25°C)  = 54
                          Density (g/cm³)  =   0.99705
                               Volume (L)  =   1.00297
                        Activity of water  =   1.000
                 Ionic strength (mol/kgw)  =   1.999e-04
                       Mass of water (kg)  =   1.000e+00
                 Total alkalinity (eq/kg)  =  -9.987e-05
                         Temperature (°C)  =  25.00
                  Electrical balance (eq)  =  -1.760e-17
 Percent error, 100*(Cat-|An|)/(Cat+|An|)  =  -0.00
                               Iterations  =  19 (231 overall)
                                  Total H  = 1.110125e+02
                                  Total O  = 5.550652e+01

----------------------------Distribution of species----------------------------

                                               Log       Log       Log    mole V
   Species          Molality    Activity  Molality  Activity     Gamma   cm³/mol

   H+              9.987e-05   9.829e-05    -4.001    -4.007    -0.007      0.00
   OH-             1.047e-10   1.030e-10    -9.980    -9.987    -0.007     -4.12
   H2O             5.551e+01   1.000e+00     1.744    -0.000     0.000     18.07
Cl            1.000e-04
   Cl-             1.000e-04   9.838e-05    -4.000    -4.007    -0.007     18.06
H(0)          0.000e+00
   H2              0.000e+00   0.000e+00   -42.797   -42.797     0.000     28.61
N(-3)         0.000e+00
   NH4+            0.000e+00   0.000e+00   -51.526   -51.533    -0.007     17.95
   NH3             0.000e+00   0.000e+00   -56.770   -56.770     0.000     24.42
N(0)          1.308e-07
   N2              6.541e-08   6.541e-08    -7.184    -7.184     0.000     29.29
N(3)          8.368e-16
   NO2-            8.368e-16   8.232e-16   -15.077   -15.084    -0.007     24.95
N(5)          9.987e-05
   NO3-            9.987e-05   9.825e-05    -4.001    -4.008    -0.007     29.47
Na            1.000e-04
   Na+             1.000e-04   9.839e-05    -4.000    -4.007    -0.007     -1.50
   NaOH            1.013e-24   1.013e-24   -23.994   -23.994     0.000     (0)  
O(0)          3.270e-07
   O2              1.635e-07   1.635e-07    -6.786    -6.786     0.000     30.40

------------------------------Saturation indices-------------------------------

  Phase               SI** log IAP   log K(298 K,   1 atm)

  H2(g)           -39.70    -42.80   -3.10  H2
  H2O(g)           -1.50     -0.00    1.50  H2O
  Halite           -9.58     -8.01    1.57  NaCl
  N2(g)            -4.01     -7.18   -3.18  N2
  NH3(g)          -58.57    -56.77    1.80  NH3
  O2(g)            -3.89     -6.79   -2.89  O2

**For a gas, SI = log10(fugacity). Fugacity = pressure * phi / 1 atm.
  For ideal gases, phi = 1.

Transport step   1. Multicomponent diffusion run 151.

Using solution 0.	Solution after simulation 2.

-----------------------------Solution composition------------------------------

	Elements           Molality       Moles

	Cl                1.000e-04   1.000e-04
	N                 1.000e-06   1.000e-06
	Na                1.000e-04   1.000e-04

----------------------------Description of solution----------------------------

                                       pH  =   6.001      Charge balance
                                       pe  =  13.252      Adjusted to redox equilibrium
      Specific Conductance (µS/cm,  25°C)  = 12
                          Density (g/cm³)  =   0.99705
                               Volume (L)  =   1.00297
                        Activity of water  =   1.000
                 Ionic strength (mol/kgw)  =   1.010e-04
                       Mass of water (kg)  =   1.000e+00
                 Total alkalinity (eq/kg)  =  -9.993e-07
                         Temperature (°C)  =  25.00
                  Electrical balance (eq)  =  -1.134e-14
 Percent error, 100*(Cat-|An|)/(Cat+|An|)  =  -0.00
                               Iterations  =   1
                                  Total H  = 1.110124e+02
                                  Total O  = 5.550622e+01

----------------------------Distribution of species----------------------------

                                               Log       Log       Log    mole V
   Species          Molality    Activity  Molality  Activity     Gamma   cm³/mol

   H+              1.010e-06   9.981e-07    -5.996    -6.001    -0.005      0.00
   OH-             1.026e-08   1.014e-08    -7.989    -7.994    -0.005     -4.13
   H2O             5.551e+01   1.000e+00     1.744    -0.000     0.000     18.07
Cl            1.000e-04
   Cl-             1.000e-04   9.884e-05    -4.000    -4.005    -0.005     18.05
H(0)          0.000e+00
   H2              0.000e+00   0.000e+00   -41.657   -41.657     0.000     28.61
N(-3)         0.000e+00
   NH4+            0.000e+00   0.000e+00   -52.951   -52.956    -0.005     17.94
   NH3             0.000e+00   0.000e+00   -56.199   -56.199     0.000     24.42
N(0)          6.856e-10
   N2              3.428e-10   3.428e-10    -9.465    -9.465     0.000     29.29
N(3)          1.157e-16
   NO2-            1.157e-16   1.143e-16   -15.937   -15.942    -0.005     24.95
N(5)          9.993e-07
   NO3-            9.993e-07   9.877e-07    -6.000    -6.005    -0.005     29.47
Na            1.000e-04
   Na+             1.000e-04   9.884e-05    -4.000    -4.005    -0.005     -1.51
   NaOH            1.002e-22   1.002e-22   -21.999   -21.999     0.000     (0)  
O(0)          1.714e-09
   O2              8.570e-10   8.570e-10    -9.067    -9.067     0.000     30.40

------------------------------Saturation indices-------------------------------

  Phase               SI** log IAP   log K(298 K,   1 atm)

  H2(g)           -38.56    -41.66   -3.10  H2
  H2O(g)           -1.50     -0.00    1.50  H2O
  Halite           -9.58     -8.01    1.57  NaCl
  N2(g)            -6.29     -9.46   -3.18  N2
  NH3(g)          -58.00    -56.20    1.80  NH3
  O2(g)            -6.17     -9.07   -2.89  O2

**For a gas, SI = log10(fugacity). Fugacity = pressure * phi / 1 atm.
  For ideal gases, phi = 1.

Using mix 1.	

Mixture 1.	

	  0.000e+00 Solution 0	Solution after simulation 2.                           
	  1.000e+00 Solution 1	Solution after simulation 2.                           
	  0.000e+00 Solution 2	Solution after simulation 2.                           

-----------------------------Solution composition------------------------------

	Elements           Molality       Moles

	Cl                9.584e-05   9.584e-05
	N                 1.281e-05   1.281e-05
	Na                1.034e-04   1.034e-04

----------------------------Description of solution----------------------------

                                       pH  =   5.287      Charge balance
                                       pe  =  14.225      Adjusted to redox equilibrium
      Specific Conductance (µS/cm,  25°C)  = 15
                          Density (g/cm³)  =   0.99705
                               Volume (L)  =   1.00297
                        Activity of water  =   1.000
                 Ionic strength (mol/kgw)  =   1.086e-04
                       Mass of water (kg)  =   1.000e+00
                 Total alkalinity (eq/kg)  =  -5.229e-06
                         Temperature (°C)  =  25.00
                  Electrical balance (eq)  =  -4.980e-13
 Percent error, 100*(Cat-|An|)/(Cat+|An|)  =  -0.00
                               Iterations  =   2
                                  Total H  = 1.110124e+02
                                  Total O  = 5.550626e+01

----------------------------Distribution of species----------------------------

                                               Log       Log       Log    mole V
   Species          Molality    Activity  Molality  Activity     Gamma   cm³/mol

   H+              5.231e-06   5.169e-06    -5.281    -5.287    -0.005      0.00
   OH-             1.982e-09   1.958e-09    -8.703    -8.708    -0.005     -4.13
   H2O             5.551e+01   1.000e+00     1.744    -0.000     0.000     18.07
Cl            9.584e-05
   Cl-             9.584e-05   9.469e-05    -4.018    -4.024    -0.005     18.05
H(0)          0.000e+00
   H2              0.000e+00   0.000e+00   -42.174   -42.174     0.000     28.61
N(-3)         0.000e+00
   NH4+            0.000e+00   0.000e+00   -52.485   -52.490    -0.005     17.94
   NH3             0.000e+00   0.000e+00   -56.448   -56.448     0.000     24.42
N(0)          7.791e-09
   N2              3.895e-09   3.896e-09    -8.409    -8.409     0.000     29.29
N(3)          4.501e-16
   NO2-            4.501e-16   4.447e-16   -15.347   -15.352    -0.005     24.95
N(5)          1.281e-05
   NO3-            1.281e-05   1.265e-05    -4.893    -4.898    -0.005     29.47
Na            1.034e-04
   Na+             1.034e-04   1.022e-04    -3.985    -3.991    -0.005     -1.51
   NaOH            2.001e-23   2.001e-23   -22.699   -22.699     0.000     (0)  
O(0)          1.859e-08
   O2              9.293e-09   9.294e-09    -8.032    -8.032     0.000     30.40

------------------------------Saturation indices-------------------------------

  Phase               SI** log IAP   log K(298 K,   1 atm)

  H2(g)           -39.07    -42.17   -3.10  H2
  H2O(g)           -1.50     -0.00    1.50  H2O
  Halite           -9.58     -8.01    1.57  NaCl
  N2(g)            -5.23     -8.41   -3.18  N2
  NH3(g)          -58.24    -56.45    1.80  NH3
  O2(g)            -5.14     -8.03   -2.89  O2

**For a gas, SI = log10(fugacity). Fugacity = pressure * phi / 1 atm.
  For ideal gases, phi = 1.

Using mix 2.	

Mixture 2.	

	  0.000e+00 Solution 1	Solution after simulation 2.                           
	  1.000e+00 Solution 2	Solution after simulation 2.                           
	  0.000e+00 Solution 3	Solution after simulation 2.                           

-----------------------------Solution composition------------------------------

	Elements           Molality       Moles

	Cl                9.006e-05   9.006e-05
	N                 3.339e-05   3.339e-05
	Na                1.089e-04   1.089e-04

----------------------------Description of solution----------------------------

                                       pH  =   4.843      Charge balance
                                       pe  =  14.791      Adjusted to redox equilibrium
      Specific Conductance (µS/cm,  25°C)  = 19
                          Density (g/cm³)  =   0.99705
                               Volume (L)  =   1.00297
                        Activity of water  =   1.000
                 Ionic strength (mol/kgw)  =   1.234e-04
                       Mass of water (kg)  =   1.000e+00
                 Total alkalinity (eq/kg)  =  -1.453e-05
                         Temperature (°C)  =  25.00
                  Electrical balance (eq)  =   8.954e-12
 Percent error, 100*(Cat-|An|)/(Cat+|An|)  =   0.00
                               Iterations  =   2
                                  Total H  = 1.110124e+02
                                  Total O  = 5.550632e+01

----------------------------Distribution of species----------------------------

                                               Log       Log       Log    mole V
   Species          Molality    Activity  Molality  Activity     Gamma   cm³/mol

   H+              1.453e-05   1.435e-05    -4.838    -4.843    -0.005      0.00
   OH-             7.147e-10   7.056e-10    -9.146    -9.151    -0.006     -4.13
   H2O             5.551e+01   1.000e+00     1.744    -0.000     0.000     18.07
Cl            9.006e-05
   Cl-             9.006e-05   8.891e-05    -4.045    -4.051    -0.006     18.06
H(0)          0.000e+00
   H2              0.000e+00   0.000e+00   -42.419   -42.419     0.000     28.61
N(-3)         0.000e+00
   NH4+            0.000e+00   0.000e+00   -52.161   -52.166    -0.006     17.94
   NH3             0.000e+00   0.000e+00   -56.567   -56.567     0.000     24.42
N(0)          2.436e-08
   N2              1.218e-08   1.218e-08    -7.914    -7.914     0.000     29.29
N(3)          6.679e-16
   NO2-            6.679e-16   6.593e-16   -15.175   -15.181    -0.006     24.95
N(5)          3.337e-05
   NO3-            3.337e-05   3.294e-05    -4.477    -4.482    -0.006     29.47
Na            1.089e-04
   Na+             1.089e-04   1.075e-04    -3.963    -3.969    -0.006     -1.51
   NaOH            7.586e-24   7.586e-24   -23.120   -23.120     0.000     (0)  
O(0)          5.732e-08
   O2              2.866e-08   2.866e-08    -7.543    -7.543     0.000     30.40

------------------------------Saturation indices-------------------------------

  Phase               SI** log IAP   log K(298 K,   1 atm)

  H2(g)           -39.32    -42.42   -3.10  H2
  H2O(g)           -1.50     -0.00    1.50  H2O
  Halite           -9.59     -8.02    1.57  NaCl
  N2(g)            -4.74     -7.91   -3.18  N2
  NH3(g)          -58.36    -56.57    1.80  NH3
  O2(g)            -4.65     -7.54   -2.89  O2

**For a gas, SI = log10(fugacity). Fugacity = pressure * phi / 1 atm.
  For ideal gases, phi = 1.

Using mix 3.	

Mixture 3.	

	  0.000e+00 Solution 2	Solution after simulation 2.                           
	  1.000e+00 Solution 3	Solution after simulation 2.                           
	  0.000e+00 Solution 4	Solution after simulation 2.                           

-----------------------------Solution composition------------------------------

	Elements           Molality       Moles

	Cl                8.695e-05   8.695e-05
	N                 4.998e-05   4.998e-05
	Na                1.123e-04   1.123e-04

----------------------------Description of solution----------------------------

                                       pH  =   4.615      Charge balance
                                       pe  =  15.077      Adjusted to redox equilibrium
      Specific Conductance (µS/cm,  25°C)  = 24
                          Density (g/cm³)  =   0.99705
                               Volume (L)  =   1.00297
                        Activity of water  =   1.000
                 Ionic strength (mol/kgw)  =   1.369e-04
                       Mass of water (kg)  =   1.000e+00
                 Total alkalinity (eq/kg)  =  -2.461e-05
                         Temperature (°C)  =  25.00
                  Electrical balance (eq)  =   1.771e-11
 Percent error, 100*(Cat-|An|)/(Cat+|An|)  =   0.00
                               Iterations  =   2
                                  Total H  = 1.110125e+02
                                  Total O  = 5.550637e+01

----------------------------Distribution of species----------------------------

                                               Log       Log       Log    mole V
   Species          Molality    Activity  Molality  Activity     Gamma   cm³/mol

   H+              2.461e-05   2.428e-05    -4.609    -4.615    -0.006      0.00
   OH-             4.225e-10   4.168e-10    -9.374    -9.380    -0.006     -4.13
   H2O             5.551e+01   1.000e+00     1.744    -0.000     0.000     18.07
Cl            8.695e-05
   Cl-             8.695e-05   8.578e-05    -4.061    -4.067    -0.006     18.06
H(0)          0.000e+00
   H2              0.000e+00   0.000e+00   -42.534   -42.534     0.000     28.61
N(-3)         0.000e+00
   NH4+            0.000e+00   0.000e+00   -51.989   -51.995    -0.006     17.94
   NH3             0.000e+00   0.000e+00   -56.624   -56.624     0.000     24.42
N(0)          4.148e-08
   N2              2.074e-08   2.074e-08    -7.683    -7.683     0.000     29.29
N(3)          7.668e-16
   NO2-            7.668e-16   7.564e-16   -15.115   -15.121    -0.006     24.95
N(5)          4.994e-05
   NO3-            4.994e-05   4.927e-05    -4.302    -4.307    -0.006     29.47
Na            1.123e-04
   Na+             1.123e-04   1.108e-04    -3.950    -3.956    -0.006     -1.51
   NaOH            4.617e-24   4.617e-24   -23.336   -23.336     0.000     (0)  
O(0)          9.741e-08
   O2              4.870e-08   4.870e-08    -7.312    -7.312     0.000     30.40

------------------------------Saturation indices-------------------------------

  Phase               SI** log IAP   log K(298 K,   1 atm)

  H2(g)           -39.43    -42.53   -3.10  H2
  H2O(g)           -1.50     -0.00    1.50  H2O
  Halite           -9.59     -8.02    1.57  NaCl
  N2(g)            -4.51     -7.68   -3.18  N2
  NH3(g)          -58.42    -56.62    1.80  NH3
  O2(g)            -4.42     -7.31   -2.89  O2

**For a gas, SI = log10(fugacity). Fugacity = pressure * phi / 1 atm.
  For ideal gases, phi = 1.

Using mix 4.	

Mixture 4.	

	  0.000e+00 Solution 3	Solution after simulation 2.                           
	  1.000e+00 Solution 4	Solution after simulation 2.                           
	  0.000e+00 Solution 5	Solution after simulation 2.                           

-----------------------------Solution composition------------------------------

	Elements           Molality       Moles

	Cl                8.578e-05   8.578e-05
	N                 6.286e-05   6.286e-05
	Na                1.135e-04   1.135e-04

----------------------------Description of solution----------------------------

                                       pH  =   4.461      Charge balance
                                       pe  =  15.267      Adjusted to redox equilibrium
      Specific Conductance (µS/cm,  25°C)  = 28
                          Density (g/cm³)  =   0.99705
                               Volume (L)  =   1.00297
                        Activity of water  =   1.000
                 Ionic strength (mol/kgw)  =   1.486e-04
                       Mass of water (kg)  =   1.000e+00
                 Total alkalinity (eq/kg)  =  -3.504e-05
                         Temperature (°C)  =  25.00
                  Electrical balance (eq)  =   7.277e-12
 Percent error, 100*(Cat-|An|)/(Cat+|An|)  =   0.00
                               Iterations  =   2
                                  Total H  = 1.110125e+02
                                  Total O  = 5.550641e+01

----------------------------Distribution of species----------------------------

                                               Log       Log       Log    mole V
   Species          Molality    Activity  Molality  Activity     Gamma   cm³/mol

   H+              3.504e-05   3.456e-05    -4.455    -4.461    -0.006      0.00
   OH-             2.970e-10   2.929e-10    -9.527    -9.533    -0.006     -4.13
   H2O             5.551e+01   1.000e+00     1.744    -0.000     0.000     18.07
Cl            8.578e-05
   Cl-             8.578e-05   8.458e-05    -4.067    -4.073    -0.006     18.06
H(0)          0.000e+00
   H2              0.000e+00   0.000e+00   -42.606   -42.606     0.000     28.61
N(-3)         0.000e+00
   NH4+            0.000e+00   0.000e+00   -51.872   -51.879    -0.006     17.95
   NH3             0.000e+00   0.000e+00   -56.661   -56.661     0.000     24.42
N(0)          5.770e-08
   N2              2.885e-08   2.885e-08    -7.540    -7.540     0.000     29.29
N(3)          8.163e-16
   NO2-            8.163e-16   8.049e-16   -15.088   -15.094    -0.006     24.95
N(5)          6.280e-05
   NO3-            6.280e-05   6.192e-05    -4.202    -4.208    -0.006     29.47
Na            1.135e-04
   Na+             1.135e-04   1.120e-04    -3.945    -3.951    -0.006     -1.51
   NaOH            3.279e-24   3.279e-24   -23.484   -23.484     0.000     (0)  
O(0)          1.359e-07
   O2              6.796e-08   6.796e-08    -7.168    -7.168     0.000     30.40

------------------------------Saturation indices-------------------------------

  Phase               SI** log IAP   log K(298 K,   1 atm)

  H2(g)           -39.51    -42.61   -3.10  H2
  H2O(g)           -1.50     -0.00    1.50  H2O
  Halite           -9.59     -8.02    1.57  NaCl
  N2(g)            -4.36     -7.54   -3.18  N2
  NH3(g)          -58.46    -56.66    1.80  NH3
  O2(g)            -4.28     -7.17   -2.89  O2

**For a gas, SI = log10(fugacity). Fugacity = pressure * phi / 1 atm.
  For ideal gases, phi = 1.

Using mix 5.	

Mixture 5.	

	  0.000e+00 Solution 4	Solution after simulation 2.                           
	  1.000e+00 Solution 5	Solution after simulation 2.                           
	  0.000e+00 Solution 6	Solution after simulation 2.                           

-----------------------------Solution composition------------------------------

	Elements           Molality       Moles

	Cl                8.595e-05   8.595e-05
	N                 7.253e-05   7.253e-05
	Na                1.131e-04   1.131e-04

----------------------------Description of solution----------------------------

                                       pH  =   4.350      Charge balance
                                       pe  =  15.403      Adjusted to redox equilibrium
      Specific Conductance (µS/cm,  25°C)  = 32
                          Density (g/cm³)  =   0.99705
                               Volume (L)  =   1.00297
                        Activity of water  =   1.000
                 Ionic strength (mol/kgw)  =   1.584e-04
                       Mass of water (kg)  =   1.000e+00
                 Total alkalinity (eq/kg)  =  -4.532e-05
                         Temperature (°C)  =  25.00
                  Electrical balance (eq)  =   2.445e-12
 Percent error, 100*(Cat-|An|)/(Cat+|An|)  =   0.00
                               Iterations  =   2
                                  Total H  = 1.110125e+02
                                  Total O  = 5.550643e+01

----------------------------Distribution of species----------------------------

                                               Log       Log       Log    mole V
   Species          Molality    Activity  Molality  Activity     Gamma   cm³/mol

   H+              4.532e-05   4.468e-05    -4.344    -4.350    -0.006      0.00
   OH-             2.299e-10   2.265e-10    -9.639    -9.645    -0.006     -4.13
   H2O             5.551e+01   1.000e+00     1.744    -0.000     0.000     18.07
Cl            8.595e-05
   Cl-             8.595e-05   8.471e-05    -4.066    -4.072    -0.006     18.06
H(0)          0.000e+00
   H2              0.000e+00   0.000e+00   -42.656   -42.656     0.000     28.61
N(-3)         0.000e+00
   NH4+            0.000e+00   0.000e+00   -51.787   -51.793    -0.006     17.95
   NH3             0.000e+00   0.000e+00   -56.688   -56.688     0.000     24.42
N(0)          7.220e-08
   N2              3.610e-08   3.610e-08    -7.443    -7.443     0.000     29.29
N(3)          8.395e-16
   NO2-            8.395e-16   8.274e-16   -15.076   -15.082    -0.006     24.95
N(5)          7.246e-05
   NO3-            7.246e-05   7.141e-05    -4.140    -4.146    -0.006     29.47
Na            1.131e-04
   Na+             1.131e-04   1.115e-04    -3.947    -3.953    -0.006     -1.51
   NaOH            2.525e-24   2.525e-24   -23.598   -23.598     0.000     (0)  
O(0)          1.710e-07
   O2              8.552e-08   8.553e-08    -7.068    -7.068     0.000     30.40

------------------------------Saturation indices-------------------------------

  Phase               SI** log IAP   log K(298 K,   1 atm)

  H2(g)           -39.55    -42.66   -3.10  H2
  H2O(g)           -1.50     -0.00    1.50  H2O
  Halite           -9.59     -8.02    1.57  NaCl
  N2(g)            -4.27     -7.44   -3.18  N2
  NH3(g)          -58.48    -56.69    1.80  NH3
  O2(g)            -4.18     -7.07   -2.89  O2

**For a gas, SI = log10(fugacity). Fugacity = pressure * phi / 1 atm.
  For ideal gases, phi = 1.

Using mix 6.	

Mixture 6.	

	  0.000e+00 Solution 5	Solution after simulation 2.                           
	  1.000e+00 Solution 6	Solution after simulation 2.                           
	  0.000e+00 Solution 7	Solution after simulation 2.                           

-----------------------------Solution composition------------------------------

	Elements           Molality       Moles

	Cl                8.694e-05   8.694e-05
	N                 7.960e-05   7.960e-05
	Na                1.115e-04   1.115e-04

----------------------------Description of solution----------------------------

                                       pH  =   4.267      Charge balance
                                       pe  =  15.504      Adjusted to redox equilibrium
      Specific Conductance (µS/cm,  25°C)  = 36
                          Density (g/cm³)  =   0.99705
                               Volume (L)  =   1.00297
                        Activity of water  =   1.000
                 Ionic strength (mol/kgw)  =   1.664e-04
                       Mass of water (kg)  =   1.000e+00
                 Total alkalinity (eq/kg)  =  -5.491e-05
                         Temperature (°C)  =  25.00
                  Electrical balance (eq)  =   2.323e-12
 Percent error, 100*(Cat-|An|)/(Cat+|An|)  =   0.00
                               Iterations  =   2
                                  Total H  = 1.110125e+02
                                  Total O  = 5.550646e+01

----------------------------Distribution of species----------------------------

                                               Log       Log       Log    mole V
   Species          Molality    Activity  Molality  Activity     Gamma   cm³/mol

   H+              5.491e-05   5.412e-05    -4.260    -4.267    -0.006      0.00
   OH-             1.898e-10   1.870e-10    -9.722    -9.728    -0.006     -4.13
   H2O             5.551e+01   1.000e+00     1.744    -0.000     0.000     18.07
Cl            8.694e-05
   Cl-             8.694e-05   8.565e-05    -4.061    -4.067    -0.006     18.06
H(0)          0.000e+00
   H2              0.000e+00   0.000e+00   -42.692   -42.692     0.000     28.61
N(-3)         0.000e+00
   NH4+            0.000e+00   0.000e+00   -51.723   -51.729    -0.007     17.95
   NH3             0.000e+00   0.000e+00   -56.707   -56.707     0.000     24.42
N(0)          8.451e-08
   N2              4.226e-08   4.226e-08    -7.374    -7.374     0.000     29.29
N(3)          8.486e-16
   NO2-            8.486e-16   8.360e-16   -15.071   -15.078    -0.006     24.95
N(5)          7.951e-05
   NO3-            7.951e-05   7.833e-05    -4.100    -4.106    -0.006     29.47
Na            1.115e-04
   Na+             1.115e-04   1.099e-04    -3.953    -3.959    -0.006     -1.50
   NaOH            2.055e-24   2.055e-24   -23.687   -23.687     0.000     (0)  
O(0)          2.016e-07
   O2              1.008e-07   1.008e-07    -6.997    -6.997     0.000     30.40

------------------------------Saturation indices-------------------------------

  Phase               SI** log IAP   log K(298 K,   1 atm)

  H2(g)           -39.59    -42.69   -3.10  H2
  H2O(g)           -1.50     -0.00    1.50  H2O
  Halite           -9.60     -8.03    1.57  NaCl
  N2(g)            -4.20     -7.37   -3.18  N2
  NH3(g)          -58.50    -56.71    1.80  NH3
  O2(g)            -4.10     -7.00   -2.89  O2

**For a gas, SI = log10(fugacity). Fugacity = pressure * phi / 1 atm.
  For ideal gases, phi = 1.

Using mix 7.	

Mixture 7.	

	  0.000e+00 Solution 6	Solution after simulation 2.                           
	  1.000e+00 Solution 7	Solution after simulation 2.                           
	  0.000e+00 Solution 8	Solution after simulation 2.                           

-----------------------------Solution composition------------------------------

	Elements           Molality       Moles

	Cl                8.830e-05   8.830e-05
	N                 8.463e-05   8.463e-05
	Na                1.096e-04   1.096e-04

----------------------------Description of solution----------------------------

                                       pH  =   4.205      Charge balance
                                       pe  =  15.578      Adjusted to redox equilibrium
      Specific Conductance (µS/cm,  25°C)  = 40
                          Density (g/cm³)  =   0.99705
                               Volume (L)  =   1.00297
                        Activity of water  =   1.000
                 Ionic strength (mol/kgw)  =   1.728e-04
                       Mass of water (kg)  =   1.000e+00
                 Total alkalinity (eq/kg)  =  -6.328e-05
                         Temperature (°C)  =  25.00
                  Electrical balance (eq)  =   2.824e-12
 Percent error, 100*(Cat-|An|)/(Cat+|An|)  =   0.00
                               Iterations  =   2
                                  Total H  = 1.110125e+02
                                  Total O  = 5.550647e+01

----------------------------Distribution of species----------------------------

                                               Log       Log       Log    mole V
   Species          Molality    Activity  Molality  Activity     Gamma   cm³/mol

   H+              6.328e-05   6.235e-05    -4.199    -4.205    -0.006      0.00
   OH-             1.648e-10   1.623e-10    -9.783    -9.790    -0.007     -4.13
   H2O             5.551e+01   1.000e+00     1.744    -0.000     0.000     18.07
Cl            8.830e-05
   Cl-             8.830e-05   8.697e-05    -4.054    -4.061    -0.007     18.06
H(0)          0.000e+00
   H2              0.000e+00   0.000e+00   -42.717   -42.717     0.000     28.61
N(-3)         0.000e+00
   NH4+            0.000e+00   0.000e+00   -51.675   -51.682    -0.007     17.95
   NH3             0.000e+00   0.000e+00   -56.721   -56.721     0.000     24.42
N(0)          9.444e-08
   N2              4.722e-08   4.722e-08    -7.326    -7.326     0.000     29.29
N(3)          8.507e-16
   NO2-            8.507e-16   8.378e-16   -15.070   -15.077    -0.007     24.95
N(5)          8.454e-05
   NO3-            8.454e-05   8.326e-05    -4.073    -4.080    -0.007     29.47
Na            1.096e-04
   Na+             1.096e-04   1.079e-04    -3.960    -3.967    -0.007     -1.50
   NaOH            1.752e-24   1.752e-24   -23.757   -23.757     0.000     (0)  
O(0)          2.268e-07
   O2              1.134e-07   1.134e-07    -6.945    -6.945     0.000     30.40

------------------------------Saturation indices-------------------------------

  Phase               SI** log IAP   log K(298 K,   1 atm)

  H2(g)           -39.62    -42.72   -3.10  H2
  H2O(g)           -1.50     -0.00    1.50  H2O
  Halite           -9.60     -8.03    1.57  NaCl
  N2(g)            -4.15     -7.33   -3.18  N2
  NH3(g)          -58.52    -56.72    1.80  NH3
  O2(g)            -4.05     -6.95   -2.89  O2

**For a gas, SI = log10(fugacity). Fugacity = pressure * phi / 1 atm.
  For ideal gases, phi = 1.

Using mix 8.	

Mixture 8.	

	  0.000e+00 Solution 7	Solution after simulation 2.                           
	  1.000e+00 Solution 8	Solution after simulation 2.                           
	  0.000e+00 Solution 9	Solution after simulation 2.                           

-----------------------------Solution composition------------------------------

	Elements           Molality       Moles

	Cl                8.968e-05   8.968e-05
	N                 8.809e-05   8.809e-05
	Na                1.077e-04   1.077e-04

----------------------------Description of solution----------------------------

                                       pH  =   4.162      Charge balance
                                       pe  =  15.631      Adjusted to redox equilibrium
      Specific Conductance (µS/cm,  25°C)  = 42
                          Density (g/cm³)  =   0.99705
                               Volume (L)  =   1.00297
                        Activity of water  =   1.000
                 Ionic strength (mol/kgw)  =   1.777e-04
                       Mass of water (kg)  =   1.000e+00
                 Total alkalinity (eq/kg)  =  -6.997e-05
                         Temperature (°C)  =  25.00
                  Electrical balance (eq)  =   5.223e-12
 Percent error, 100*(Cat-|An|)/(Cat+|An|)  =   0.00
                               Iterations  =   2
                                  Total H  = 1.110125e+02
                                  Total O  = 5.550648e+01

----------------------------Distribution of species----------------------------

                                               Log       Log       Log    mole V
   Species          Molality    Activity  Molality  Activity     Gamma   cm³/mol

   H+              6.997e-05   6.892e-05    -4.155    -4.162    -0.007      0.00
   OH-             1.491e-10   1.469e-10    -9.826    -9.833    -0.007     -4.13
   H2O             5.551e+01   1.000e+00     1.744    -0.000     0.000     18.07
Cl            8.968e-05
   Cl-             8.968e-05   8.831e-05    -4.047    -4.054    -0.007     18.06
H(0)          0.000e+00
   H2              0.000e+00   0.000e+00   -42.735   -42.735     0.000     28.61
N(-3)         0.000e+00
   NH4+            0.000e+00   0.000e+00   -51.642   -51.649    -0.007     17.95
   NH3             0.000e+00   0.000e+00   -56.731   -56.731     0.000     24.42
N(0)          1.019e-07
   N2              5.095e-08   5.095e-08    -7.293    -7.293     0.000     29.29
N(3)          8.500e-16
   NO2-            8.500e-16   8.370e-16   -15.071   -15.077    -0.007     24.95
N(5)          8.799e-05
   NO3-            8.799e-05   8.664e-05    -4.056    -4.062    -0.007     29.47
Na            1.077e-04
   Na+             1.077e-04   1.061e-04    -3.968    -3.974    -0.007     -1.50
   NaOH            1.558e-24   1.558e-24   -23.808   -23.808     0.000     (0)  
O(0)          2.460e-07
   O2              1.230e-07   1.230e-07    -6.910    -6.910     0.000     30.40

------------------------------Saturation indices-------------------------------

  Phase               SI** log IAP   log K(298 K,   1 atm)

  H2(g)           -39.63    -42.73   -3.10  H2
  H2O(g)           -1.50     -0.00    1.50  H2O
  Halite           -9.60     -8.03    1.57  NaCl
  N2(g)            -4.12     -7.29   -3.18  N2
  NH3(g)          -58.53    -56.73    1.80  NH3
  O2(g)            -4.02     -6.91   -2.89  O2

**For a gas, SI = log10(fugacity). Fugacity = pressure * phi / 1 atm.
  For ideal gases, phi = 1.

Using mix 9.	

Mixture 9.	

	  0.000e+00 Solution 8	Solution after simulation 2.                           
	  1.000e+00 Solution 9	Solution after simulation 2.                           
	  0.000e+00 Solution 10	Solution after simulation 2.                           

-----------------------------Solution composition------------------------------

	Elements           Molality       Moles

	Cl                9.077e-05   9.077e-05
	N                 9.026e-05   9.026e-05
	Na                1.063e-04   1.063e-04

----------------------------Description of solution----------------------------

                                       pH  =   4.134      Charge balance
                                       pe  =  15.664      Adjusted to redox equilibrium
      Specific Conductance (µS/cm,  25°C)  = 44
                          Density (g/cm³)  =   0.99705
                               Volume (L)  =   1.00297
                        Activity of water  =   1.000
                 Ionic strength (mol/kgw)  =   1.809e-04
                       Mass of water (kg)  =   1.000e+00
                 Total alkalinity (eq/kg)  =  -7.461e-05
                         Temperature (°C)  =  25.00
                  Electrical balance (eq)  =   5.192e-12
 Percent error, 100*(Cat-|An|)/(Cat+|An|)  =   0.00
                               Iterations  =   2
                                  Total H  = 1.110125e+02
                                  Total O  = 5.550649e+01

----------------------------Distribution of species----------------------------

                                               Log       Log       Log    mole V
   Species          Molality    Activity  Molality  Activity     Gamma   cm³/mol

   H+              7.461e-05   7.348e-05    -4.127    -4.134    -0.007      0.00
   OH-             1.399e-10   1.377e-10    -9.854    -9.861    -0.007     -4.13
   H2O             5.551e+01   1.000e+00     1.744    -0.000     0.000     18.07
Cl            9.077e-05
   Cl-             9.077e-05   8.937e-05    -4.042    -4.049    -0.007     18.06
H(0)          0.000e+00
   H2              0.000e+00   0.000e+00   -42.746   -42.746     0.000     28.61
N(-3)         0.000e+00
   NH4+            0.000e+00   0.000e+00   -51.620   -51.627    -0.007     17.95
   NH3             0.000e+00   0.000e+00   -56.738   -56.738     0.000     24.42
N(0)          1.069e-07
   N2              5.343e-08   5.343e-08    -7.272    -7.272     0.000     29.29
N(3)          8.488e-16
   NO2-            8.488e-16   8.356e-16   -15.071   -15.078    -0.007     24.95
N(5)          9.015e-05
   NO3-            9.015e-05   8.876e-05    -4.045    -4.052    -0.007     29.47
Na            1.063e-04
   Na+             1.063e-04   1.047e-04    -3.973    -3.980    -0.007     -1.50
   NaOH            1.442e-24   1.442e-24   -23.841   -23.841     0.000     (0)  
O(0)          2.591e-07
   O2              1.295e-07   1.295e-07    -6.888    -6.888     0.000     30.40

------------------------------Saturation indices-------------------------------

  Phase               SI** log IAP   log K(298 K,   1 atm)

  H2(g)           -39.65    -42.75   -3.10  H2
  H2O(g)           -1.50     -0.00    1.50  H2O
  Halite           -9.60     -8.03    1.57  NaCl
  N2(g)            -4.10     -7.27   -3.18  N2
  NH3(g)          -58.53    -56.74    1.80  NH3
  O2(g)            -4.00     -6.89   -2.89  O2

**For a gas, SI = log10(fugacity). Fugacity = pressure * phi / 1 atm.
  For ideal gases, phi = 1.

Using mix 10.	

Mixture 10.	

	  0.000e+00 Solution 9	Solution after simulation 2.                           
	  1.000e+00 Solution 10	Solution after simulation 2.                           
	  0.000e+00 Solution 11	Solution after simulation 2.                           

-----------------------------Solution composition------------------------------

	Elements           Molality       Moles

	Cl                9.137e-05   9.137e-05
	N                 9.131e-05   9.131e-05
	Na                1.056e-04   1.056e-04

----------------------------Description of solution----------------------------

                                       pH  =   4.120      Charge balance
                                       pe  =  15.681      Adjusted to redox equilibrium
      Specific Conductance (µS/cm,  25°C)  = 45
                          Density (g/cm³)  =   0.99705
                               Volume (L)  =   1.00297
                        Activity of water  =   1.000
                 Ionic strength (mol/kgw)  =   1.826e-04
                       Mass of water (kg)  =   1.000e+00
                 Total alkalinity (eq/kg)  =  -7.698e-05
                         Temperature (°C)  =  25.00
                  Electrical balance (eq)  =   6.194e-12
 Percent error, 100*(Cat-|An|)/(Cat+|An|)  =   0.00
                               Iterations  =   2
                                  Total H  = 1.110125e+02
                                  Total O  = 5.550649e+01

----------------------------Distribution of species----------------------------

                                               Log       Log       Log    mole V
   Species          Molality    Activity  Molality  Activity     Gamma   cm³/mol

   H+              7.698e-05   7.582e-05    -4.114    -4.120    -0.007      0.00
   OH-             1.356e-10   1.335e-10    -9.868    -9.875    -0.007     -4.13
   H2O             5.551e+01   1.000e+00     1.744    -0.000     0.000     18.07
Cl            9.137e-05
   Cl-             9.137e-05   8.996e-05    -4.039    -4.046    -0.007     18.06
H(0)          0.000e+00
   H2              0.000e+00   0.000e+00   -42.752   -42.752     0.000     28.61
N(-3)         0.000e+00
   NH4+            0.000e+00   0.000e+00   -51.610   -51.617    -0.007     17.95
   NH3             0.000e+00   0.000e+00   -56.741   -56.741     0.000     24.42
N(0)          1.093e-07
   N2              5.467e-08   5.467e-08    -7.262    -7.262     0.000     29.29
N(3)          8.479e-16
   NO2-            8.479e-16   8.348e-16   -15.072   -15.078    -0.007     24.95
N(5)          9.120e-05
   NO3-            9.120e-05   8.978e-05    -4.040    -4.047    -0.007     29.47
Na            1.056e-04
   Na+             1.056e-04   1.040e-04    -3.976    -3.983    -0.007     -1.50
   NaOH            1.388e-24   1.388e-24   -23.858   -23.858     0.000     (0)  
O(0)          2.656e-07
   O2              1.328e-07   1.328e-07    -6.877    -6.877     0.000     30.40

------------------------------Saturation indices-------------------------------

  Phase               SI** log IAP   log K(298 K,   1 atm)

  H2(g)           -39.65    -42.75   -3.10  H2
  H2O(g)           -1.50     -0.00    1.50  H2O
  Halite           -9.60     -8.03    1.57  NaCl
  N2(g)            -4.09     -7.26   -3.18  N2
  NH3(g)          -58.54    -56.74    1.80  NH3
  O2(g)            -3.98     -6.88   -2.89  O2

**For a gas, SI = log10(fugacity). Fugacity = pressure * phi / 1 atm.
  For ideal gases, phi = 1.

Using solution 11.	Solution after simulation 2.

-----------------------------Solution composition------------------------------

	Elements           Molality       Moles

	Cl                1.000e-04   1.000e-04
	N                 1.000e-04   1.000e-04
	Na                1.000e-04   1.000e-04

----------------------------Description of solution----------------------------

                                       pH  =   4.007      Charge balance
                                       pe  =  15.816      Adjusted to redox equilibrium
      Specific Conductance (µS/cm,  25°C)  = 54
                          Density (g/cm³)  =   0.99705
                               Volume (L)  =   1.00297
                        Activity of water  =   1.000
                 Ionic strength (mol/kgw)  =   1.999e-04
                       Mass of water (kg)  =   1.000e+00
                 Total alkalinity (eq/kg)  =  -9.987e-05
                         Temperature (°C)  =  25.00
                  Electrical balance (eq)  =  -6.298e-16
 Percent error, 100*(Cat-|An|)/(Cat+|An|)  =  -0.00
                               Iterations  =   1
                                  Total H  = 1.110125e+02
                                  Total O  = 5.550652e+01

----------------------------Distribution of species----------------------------

                                               Log       Log       Log    mole V
   Species          Molality    Activity  Molality  Activity     Gamma   cm³/mol

   H+              9.987e-05   9.829e-05    -4.001    -4.007    -0.007      0.00
   OH-             1.047e-10   1.030e-10    -9.980    -9.987    -0.007     -4.12
   H2O             5.551e+01   1.000e+00     1.744    -0.000     0.000     18.07
Cl            1.000e-04
   Cl-             1.000e-04   9.838e-05    -4.000    -4.007    -0.007     18.06
H(0)          0.000e+00
   H2              0.000e+00   0.000e+00   -42.797   -42.797     0.000     28.61
N(-3)         0.000e+00
   NH4+            0.000e+00   0.000e+00   -51.526   -51.533    -0.007     17.95
   NH3             0.000e+00   0.000e+00   -56.770   -56.770     0.000     24.42
N(0)          1.308e-07
   N2              6.541e-08   6.541e-08    -7.184    -7.184     0.000     29.29
N(3)          8.368e-16
   NO2-            8.368e-16   8.232e-16   -15.077   -15.084    -0.007     24.95
N(5)          9.987e-05
   NO3-            9.987e-05   9.825e-05    -4.001    -4.008    -0.007     29.47
Na            1.000e-04
   Na+             1.000e-04   9.839e-05    -4.000    -4.007    -0.007     -1.50
   NaOH            1.013e-24   1.013e-24   -23.994   -23.994     0.000     (0)  
O(0)          3.270e-07
   O2              1.635e-07   1.635e-07    -6.786    -6.786     0.000     30.40

------------------------------Saturation indices-------------------------------

  Phase               SI** log IAP   log K(298 K,   1 atm)

  H2(g)           -39.70    -42.80   -3.10  H2
  H2O(g)           -1.50     -0.00    1.50  H2O
  Halite           -9.58     -8.01    1.57  NaCl
  N2(g)            -4.01     -7.18   -3.18  N2
  NH3(g)          -58.57    -56.77    1.80  NH3
  O2(g)            -3.89     -6.79   -2.89  O2

**For a gas, SI = log10(fugacity). Fugacity = pressure * phi / 1 atm.
  For ideal gases, phi = 1.

------------------
End of simulation.
------------------

------------------------------------
Reading input data for simulation 3.
------------------------------------

----------------------------------
End of Run after 0.048636 Seconds.
----------------------------------

